18624-1
                    3D
 Schrodinger Suite 2021-2.
 38 39  0  0  1  0            999 V2000
   24.4262   10.9874   30.4470 C   0  0  0  0  0  0
   22.9967   11.3794   30.1014 C   0  0  0  0  0  0
   22.2003   11.4404   31.2701 O   0  0  0  0  0  0
   21.4821   10.3341   31.6703 C   0  0  0  0  0  0
   21.8282    9.1254   31.1879 N   0  0  0  0  0  0
   21.0608    8.0544   31.4508 C   0  0  0  0  0  0
   19.9032    8.1600   32.2367 C   0  0  0  0  0  0
   19.5676    9.4012   32.7695 C   0  0  0  0  0  0
   18.4113    9.4863   33.5146 N   0  0  0  0  0  0
   20.3597   10.5169   32.4811 C   0  0  0  0  0  0
   20.0046   11.8397   32.9250 C   0  0  0  0  0  0
   19.7195   12.8950   33.2697 N   0  0  0  0  0  0
   21.4742    6.8418   30.8812 N   0  0  0  0  0  0
   21.0056    5.5982   31.0137 C   0  0  0  0  0  0
   20.0361    5.2598   31.6768 O   0  0  0  0  0  0
   21.7490    4.5568   30.2055 C   0  0  0  0  0  0
   23.0957    4.2605   30.8186 C   0  0  0  0  0  0
   24.2053    5.0845   30.5548 C   0  0  0  0  0  0
   25.4580    4.7496   31.0979 C   0  0  0  0  0  0
   25.6061    3.6082   31.9113 C   0  0  0  0  0  0
   24.4953    2.7911   32.1794 C   0  0  0  0  0  0
   23.2500    3.1160   31.6212 C   0  0  0  0  0  0
   25.0583   10.9946   29.5594 H   0  0  0  0  0  0
   24.4749    9.9895   30.8816 H   0  0  0  0  0  0
   24.8508   11.6853   31.1681 H   0  0  0  0  0  0
   23.0005   12.3755   29.6590 H   0  0  0  0  0  0
   22.5739   10.7220   29.3399 H   0  0  0  0  0  0
   19.2629    7.3199   32.4508 H   0  0  0  0  0  0
   17.9824   10.3902   33.6677 H   0  0  0  0  0  0
   17.7592    8.7161   33.5096 H   0  0  0  0  0  0
   22.2833    6.9274   30.2916 H   0  0  0  0  0  0
   21.1590    3.6399   30.1497 H   0  0  0  0  0  0
   21.8739    4.9065   29.1802 H   0  0  0  0  0  0
   24.1126    5.9564   29.9238 H   0  0  0  0  0  0
   26.3152    5.3720   30.8862 H   0  0  0  0  0  0
   26.5728    3.3590   32.3234 H   0  0  0  0  0  0
   24.6027    1.9047   32.7871 H   0  0  0  0  0  0
   22.4147    2.4505   31.7784 H   0  0  0  0  0  0
  1  2  1  0  0  0
  1 23  1  0  0  0
  1 24  1  0  0  0
  1 25  1  0  0  0
  2  3  1  0  0  0
  2 26  1  0  0  0
  2 27  1  0  0  0
  3  4  1  0  0  0
  4 10  1  0  0  0
  4  5  2  0  0  0
  5  6  1  0  0  0
  6  7  2  0  0  0
  6 13  1  0  0  0
  7  8  1  0  0  0
  7 28  1  0  0  0
  8  9  1  0  0  0
  8 10  2  0  0  0
  9 29  1  0  0  0
  9 30  1  0  0  0
 10 11  1  0  0  0
 11 12  3  0  0  0
 13 14  1  0  0  0
 13 31  1  0  0  0
 14 15  2  0  0  0
 14 16  1  0  0  0
 16 17  1  0  0  0
 16 32  1  0  0  0
 16 33  1  0  0  0
 17 22  1  0  0  0
 17 18  2  0  0  0
 18 19  1  0  0  0
 18 34  1  0  0  0
 19 20  2  0  0  0
 19 35  1  0  0  0
 20 21  1  0  0  0
 20 36  1  0  0  0
 21 22  2  0  0  0
 21 37  1  0  0  0
 22 38  1  0  0  0
M  END
> <i_m_stars>
2

> <s_m_entry_id>
3019

> <s_m_entry_name>
Jnk1_18624-1.1

> <s_m_Source_Path>
C:\Users\yujiethinkpad\Desktop\05A\JNK1

> <s_m_Source_File>
Jnk1_18624-1.sdf

> <i_m_Source_File_Index>
1

> <s_i_glide_gridfile>
glide-grid_JNK1

> <r_i_docking_score>
-7.5206462127977

> <r_i_glide_ecoul>
-6.34174633026123

> <r_i_glide_einternal>
8.20187664031982

> <r_i_glide_emodel>
-37.8863501792222

> <r_i_glide_energy>
-37.7625131607056

> <r_i_glide_erotb>
0.834467228461277

> <r_i_glide_esite>
0

> <r_i_glide_evdw>
-31.4207668304443

> <r_i_glide_gscore>
-7.5206462127977

> <r_i_glide_hbond>
-0.338969279150022

> <r_i_glide_ligand_efficiency>
-0.341847555127168

> <r_i_glide_ligand_efficiency_ln>
-1.83832025664364

> <r_i_glide_ligand_efficiency_sa>
-0.957870293567772

> <r_i_glide_lipo>
-3.21902739606514

> <r_i_glide_metal>
0

> <r_i_glide_rewards>
-2.27481647498242

> <i_i_glide_confnum>
3

> <i_i_glide_lignum>
15

> <i_i_glide_posenum>
381

> <i_i_glide_rotatable_bonds>
6

> <r_i_glide_eff_state_penalty>
0

> <s_m_job_name>
glide-dock_SP_other_0000

> <r_user_dG.exp>
-8.49337

> <r_m_Molecular_weight>
296.33152

> <r_glide_shape_similarity>
0.837782084941864

> <s_m_subgroup_title>
glide-dock_SP_other_0000_lib1

> <s_m_subgroupid>
glide-dock_SP_other_0000_lib1

> <b_m_subgroup_collapsed>
0

$$$$
