18625-1
                    3D
 Schrodinger Suite 2021-2.
 38 39  0  0  1  0            999 V2000
   24.2181   12.2789   30.0599 C   0  0  0  0  0  0
   23.4423   11.0132   30.3806 C   0  0  0  0  0  0
   22.3788   11.3107   31.2699 O   0  0  0  0  0  0
   21.5642   10.2814   31.6754 C   0  0  0  0  0  0
   21.8752    9.0415   31.2276 N   0  0  0  0  0  0
   21.0551    8.0139   31.4881 C   0  0  0  0  0  0
   19.8857    8.1722   32.2284 C   0  0  0  0  0  0
   19.5868    9.4353   32.7144 C   0  0  0  0  0  0
   18.3777    9.5969   33.3380 N   0  0  0  0  0  0
   20.4281   10.5278   32.4629 C   0  0  0  0  0  0
   20.0922   11.8571   32.8941 C   0  0  0  0  0  0
   19.8111   12.9128   33.2566 N   0  0  0  0  0  0
   21.4388    6.8056   30.9114 N   0  0  0  0  0  0
   20.9955    5.5597   31.0270 C   0  0  0  0  0  0
   20.0094    5.1984   31.6691 O   0  0  0  0  0  0
   21.7427    4.5425   30.2126 C   0  0  0  0  0  0
   23.0984    4.2568   30.8197 C   0  0  0  0  0  0
   24.2169    5.0698   30.5580 C   0  0  0  0  0  0
   24.1496    6.4507   29.5500 Cl  0  0  0  0  0  0
   25.4682    4.7212   31.1102 C   0  0  0  0  0  0
   25.6155    3.5992   31.9338 C   0  0  0  0  0  0
   24.5047    2.7842   32.1780 C   0  0  0  0  0  0
   23.2573    3.1120   31.6199 C   0  0  0  0  0  0
   25.0562   12.0679   29.3953 H   0  0  0  0  0  0
   24.6233   12.7354   30.9689 H   0  0  0  0  0  0
   23.5876   13.0243   29.5629 H   0  0  0  0  0  0
   23.0526   10.5966   29.4541 H   0  0  0  0  0  0
   24.1210   10.2919   30.8229 H   0  0  0  0  0  0
   19.2176    7.3376   32.4155 H   0  0  0  0  0  0
   18.0062   10.5050   33.5844 H   0  0  0  0  0  0
   17.7630    8.8077   33.4807 H   0  0  0  0  0  0
   22.2657    6.8935   30.3359 H   0  0  0  0  0  0
   21.1594    3.6214   30.1406 H   0  0  0  0  0  0
   21.8549    4.9099   29.1888 H   0  0  0  0  0  0
   26.3265    5.3449   30.9042 H   0  0  0  0  0  0
   26.5843    3.3489   32.3633 H   0  0  0  0  0  0
   24.6048    1.8800   32.7780 H   0  0  0  0  0  0
   22.4184    2.4336   31.7693 H   0  0  0  0  0  0
  1  2  1  0  0  0
  1 24  1  0  0  0
  1 25  1  0  0  0
  1 26  1  0  0  0
  2  3  1  0  0  0
  2 27  1  0  0  0
  2 28  1  0  0  0
  3  4  1  0  0  0
  4 10  1  0  0  0
  4  5  2  0  0  0
  5  6  1  0  0  0
  6  7  2  0  0  0
  6 13  1  0  0  0
  7  8  1  0  0  0
  7 29  1  0  0  0
  8  9  1  0  0  0
  8 10  2  0  0  0
  9 30  1  0  0  0
  9 31  1  0  0  0
 10 11  1  0  0  0
 11 12  3  0  0  0
 13 14  1  0  0  0
 13 32  1  0  0  0
 14 15  2  0  0  0
 14 16  1  0  0  0
 16 17  1  0  0  0
 16 33  1  0  0  0
 16 34  1  0  0  0
 17 23  1  0  0  0
 17 18  2  0  0  0
 18 19  1  0  0  0
 18 20  1  0  0  0
 20 21  2  0  0  0
 20 35  1  0  0  0
 21 22  1  0  0  0
 21 36  1  0  0  0
 22 23  2  0  0  0
 22 37  1  0  0  0
 23 38  1  0  0  0
M  END
> <i_m_stars>
0

> <s_m_entry_id>
3012

> <s_m_entry_name>
Jnk1_18625-1.1

> <s_m_Source_Path>
C:\Users\yujiethinkpad\Desktop\05A\JNK1

> <s_m_Source_File>
Jnk1_18625-1.sdf

> <i_m_Source_File_Index>
1

> <s_i_glide_gridfile>
glide-grid_JNK1

> <r_i_docking_score>
-7.82072052867881

> <r_i_glide_ecoul>
-6.69095659255981

> <r_i_glide_einternal>
7.97347545623779

> <r_i_glide_emodel>
-44.7260208966343

> <r_i_glide_energy>
-39.8047413825989

> <r_i_glide_erotb>
0.687793016403273

> <r_i_glide_esite>
0

> <r_i_glide_evdw>
-33.1137847900391

> <r_i_glide_gscore>
-7.82072052867881

> <r_i_glide_hbond>
-0.319890663649194

> <r_i_glide_ligand_efficiency>
-0.340031327333861

> <r_i_glide_ligand_efficiency_ln>
-1.89112113820758

> <r_i_glide_ligand_efficiency_sa>
-0.967003862909189

> <r_i_glide_lipo>
-3.49576350593997

> <r_i_glide_metal>
0

> <r_i_glide_rewards>
-2.033526647107

> <i_i_glide_confnum>
10

> <i_i_glide_lignum>
16

> <i_i_glide_posenum>
5

> <i_i_glide_rotatable_bonds>
6

> <r_i_glide_eff_state_penalty>
0

> <s_m_job_name>
glide-dock_SP_other_0000

> <r_user_dG.exp>
-8.105004

> <r_m_Molecular_weight>
330.77655

> <r_glide_shape_similarity>
0.866562485694885

> <s_m_subgroup_title>
glide-dock_SP_other_0000_lib1

> <s_m_subgroupid>
glide-dock_SP_other_0000_lib1

> <b_m_subgroup_collapsed>
0

$$$$
