18635-1
                    3D
 Schrodinger Suite 2021-2.
 44 45  0  0  1  0            999 V2000
   24.4210   10.9580   30.4334 C   0  0  0  0  0  0
   22.9935   11.3649   30.0972 C   0  0  0  0  0  0
   22.2060   11.4302   31.2708 O   0  0  0  0  0  0
   21.4772   10.3307   31.6704 C   0  0  0  0  0  0
   21.8129    9.1186   31.1904 N   0  0  0  0  0  0
   21.0366    8.0542   31.4559 C   0  0  0  0  0  0
   19.8847    8.1673   32.2466 C   0  0  0  0  0  0
   19.5607    9.4132   32.7761 C   0  0  0  0  0  0
   18.4115    9.5111   33.5266 N   0  0  0  0  0  0
   20.3580   10.5236   32.4834 C   0  0  0  0  0  0
   20.0110   11.8498   32.9252 C   0  0  0  0  0  0
   19.7316   12.9070   33.2680 N   0  0  0  0  0  0
   21.4394    6.8395   30.8879 N   0  0  0  0  0  0
   20.9841    5.5927   31.0208 C   0  0  0  0  0  0
   20.0107    5.2523   31.6728 O   0  0  0  0  0  0
   21.7341    4.5523   30.2161 C   0  0  0  0  0  0
   23.1015    4.2774   30.8053 C   0  0  0  0  0  0
   24.2288    5.0937   30.5490 C   0  0  0  0  0  0
   24.1881    6.3407   29.6921 C   0  0  0  0  0  0
   25.4718    4.7412   31.1036 C   0  0  0  0  0  0
   25.6092    3.6073   31.9205 C   0  0  0  0  0  0
   24.4870    2.8129   32.1935 C   0  0  0  0  0  0
   24.6071    1.6241   33.1119 C   0  0  0  0  0  0
   23.2521    3.1349   31.6119 C   0  0  0  0  0  0
   25.0495   10.9584   29.5432 H   0  0  0  0  0  0
   24.4615    9.9590   30.8676 H   0  0  0  0  0  0
   24.8583   11.6508   31.1523 H   0  0  0  0  0  0
   23.0044   12.3623   29.6573 H   0  0  0  0  0  0
   22.5589   10.7120   29.3374 H   0  0  0  0  0  0
   19.2436    7.3278   32.4638 H   0  0  0  0  0  0
   17.9836   10.4178   33.6669 H   0  0  0  0  0  0
   17.7619    8.7387   33.5244 H   0  0  0  0  0  0
   22.2581    6.9193   30.3092 H   0  0  0  0  0  0
   21.1556    3.6274   30.1998 H   0  0  0  0  0  0
   21.8046    4.8626   29.1760 H   0  0  0  0  0  0
   25.1258    6.4504   29.1467 H   0  0  0  0  0  0
   23.3988    6.3257   28.9448 H   0  0  0  0  0  0
   24.0755    7.2242   30.3197 H   0  0  0  0  0  0
   26.3422    5.3519   30.9084 H   0  0  0  0  0  0
   26.5709    3.3627   32.3473 H   0  0  0  0  0  0
   25.2934    1.8343   33.9333 H   0  0  0  0  0  0
   23.6393    1.3588   33.5391 H   0  0  0  0  0  0
   24.9817    0.7606   32.5613 H   0  0  0  0  0  0
   22.4108    2.4789   31.7744 H   0  0  0  0  0  0
  1  2  1  0  0  0
  1 25  1  0  0  0
  1 26  1  0  0  0
  1 27  1  0  0  0
  2  3  1  0  0  0
  2 28  1  0  0  0
  2 29  1  0  0  0
  3  4  1  0  0  0
  4 10  1  0  0  0
  4  5  2  0  0  0
  5  6  1  0  0  0
  6  7  2  0  0  0
  6 13  1  0  0  0
  7  8  1  0  0  0
  7 30  1  0  0  0
  8  9  1  0  0  0
  8 10  2  0  0  0
  9 31  1  0  0  0
  9 32  1  0  0  0
 10 11  1  0  0  0
 11 12  3  0  0  0
 13 14  1  0  0  0
 13 33  1  0  0  0
 14 15  2  0  0  0
 14 16  1  0  0  0
 16 17  1  0  0  0
 16 34  1  0  0  0
 16 35  1  0  0  0
 17 24  1  0  0  0
 17 18  2  0  0  0
 18 19  1  0  0  0
 18 20  1  0  0  0
 19 36  1  0  0  0
 19 37  1  0  0  0
 19 38  1  0  0  0
 20 21  2  0  0  0
 20 39  1  0  0  0
 21 22  1  0  0  0
 21 40  1  0  0  0
 22 23  1  0  0  0
 22 24  2  0  0  0
 23 41  1  0  0  0
 23 42  1  0  0  0
 23 43  1  0  0  0
 24 44  1  0  0  0
M  END
> <i_m_stars>
0

> <s_m_entry_id>
3013

> <s_m_entry_name>
Jnk1_18635-1.1

> <s_m_Source_Path>
C:\Users\yujiethinkpad\Desktop\05A\JNK1

> <s_m_Source_File>
Jnk1_18635-1.sdf

> <i_m_Source_File_Index>
1

> <s_i_glide_gridfile>
glide-grid_JNK1

> <r_i_docking_score>
-7.66366960136805

> <r_i_glide_ecoul>
-6.45434665679932

> <r_i_glide_einternal>
7.53533697128296

> <r_i_glide_emodel>
-47.7276914423635

> <r_i_glide_energy>
-39.7485132217407

> <r_i_glide_erotb>
0.889885637456498

> <r_i_glide_esite>
0

> <r_i_glide_evdw>
-33.2941665649414

> <r_i_glide_gscore>
-7.66366960136805

> <r_i_glide_hbond>
-0.330684857162634

> <r_i_glide_ligand_efficiency>
-0.319319566723669

> <r_i_glide_ligand_efficiency_ln>
-1.83426779849072

> <r_i_glide_ligand_efficiency_sa>
-0.921077014820174

> <r_i_glide_lipo>
-3.50750362546414

> <r_i_glide_metal>
0

> <r_i_glide_rewards>
-2.08250642943081

> <i_i_glide_confnum>
1

> <i_i_glide_lignum>
6

> <i_i_glide_posenum>
389

> <i_i_glide_rotatable_bonds>
6

> <r_i_glide_eff_state_penalty>
0

> <s_m_job_name>
glide-dock_SP_other_0000

> <r_user_dG.exp>
-7.286071

> <r_m_Molecular_weight>
324.3857

> <r_glide_shape_similarity>
0.900346875190735

> <s_m_subgroup_title>
glide-dock_SP_other_0000_lib1

> <s_m_subgroupid>
glide-dock_SP_other_0000_lib1

> <b_m_subgroup_collapsed>
0

$$$$
