18637-1
                    3D
 Schrodinger Suite 2021-2.
 53 54  0  0  1  0            999 V2000
   23.4858   11.1016   29.1402 C   0  0  0  0  0  0
   23.5984   11.2166   30.6684 C   0  0  0  0  0  0
   22.3168   11.4312   31.2701 O   0  0  0  0  0  0
   21.5365   10.3497   31.6697 C   0  0  0  0  0  0
   21.8628    9.1187   31.2013 N   0  0  0  0  0  0
   21.0662    8.0540   31.4570 C   0  0  0  0  0  0
   19.9016    8.1781   32.2486 C   0  0  0  0  0  0
   19.5741    9.4395   32.7736 C   0  0  0  0  0  0
   18.4113    9.5438   33.5287 N   0  0  0  0  0  0
   20.3862   10.5590   32.4697 C   0  0  0  0  0  0
   20.0307   11.8975   32.9182 C   0  0  0  0  0  0
   19.7449   12.9561   33.2693 N   0  0  0  0  0  0
   21.4534    6.8285   30.8694 N   0  0  0  0  0  0
   20.9726    5.5770   30.9906 C   0  0  0  0  0  0
   20.0108    5.2347   31.6706 O   0  0  0  0  0  0
   21.7152    4.5284   30.1644 C   0  0  0  0  0  0
   23.0837    4.2464   30.7752 C   0  0  0  0  0  0
   24.1888    5.1062   30.5326 C   0  0  0  0  0  0
   23.9831    6.2225   29.7358 O   0  0  0  0  0  0
   24.8048    7.3641   29.9671 C   0  0  0  0  0  0
   25.4494    4.7641   31.0937 C   0  0  0  0  0  0
   25.5984    3.6030   31.9079 C   0  0  0  0  0  0
   24.4763    2.7777   32.1871 C   0  0  0  0  0  0
   23.2340    3.1001   31.5864 C   0  0  0  0  0  0
   24.6607    1.6933   33.0307 O   0  0  0  0  0  0
   23.6713    0.6700   33.0496 C   0  0  0  0  0  0
   26.8369    3.1964   32.4918 N   0  0  0  0  0  0
   28.0991    3.5930   32.2192 C   0  0  0  0  0  0
   28.4124    4.4319   31.3693 O   0  0  0  0  0  0
   29.1941    2.9266   33.0628 C   0  0  0  0  0  0
   24.4681   10.9763   28.6846 H   0  0  0  0  0  0
   23.0323   11.9972   28.7148 H   0  0  0  0  0  0
   22.8723   10.2497   28.8477 H   0  0  0  0  0  0
   24.1107   10.3531   31.0960 H   0  0  0  0  0  0
   24.2206   12.0780   30.9123 H   0  0  0  0  0  0
   19.2557    7.3409   32.4591 H   0  0  0  0  0  0
   17.9840   10.4505   33.7086 H   0  0  0  0  0  0
   17.7719    8.7572   33.5833 H   0  0  0  0  0  0
   22.2635    6.9079   30.2666 H   0  0  0  0  0  0
   21.1300    3.6098   30.1110 H   0  0  0  0  0  0
   21.8265    4.8832   29.1404 H   0  0  0  0  0  0
   24.4166    8.2055   29.3941 H   0  0  0  0  0  0
   24.8006    7.6534   31.0183 H   0  0  0  0  0  0
   25.8322    7.1952   29.6428 H   0  0  0  0  0  0
   26.2954    5.3997   30.8931 H   0  0  0  0  0  0
   22.3814    2.4528   31.7010 H   0  0  0  0  0  0
   23.9637   -0.1031   33.7596 H   0  0  0  0  0  0
   22.6916    1.0367   33.3480 H   0  0  0  0  0  0
   23.5831    0.2014   32.0699 H   0  0  0  0  0  0
   26.7452    2.4556   33.1783 H   0  0  0  0  0  0
   29.1320    1.8407   32.9851 H   0  0  0  0  0  0
   30.1827    3.2370   32.7229 H   0  0  0  0  0  0
   29.0896    3.2094   34.1105 H   0  0  0  0  0  0
  1  2  1  0  0  0
  1 31  1  0  0  0
  1 32  1  0  0  0
  1 33  1  0  0  0
  2  3  1  0  0  0
  2 34  1  0  0  0
  2 35  1  0  0  0
  3  4  1  0  0  0
  4 10  1  0  0  0
  4  5  2  0  0  0
  5  6  1  0  0  0
  6  7  2  0  0  0
  6 13  1  0  0  0
  7  8  1  0  0  0
  7 36  1  0  0  0
  8  9  1  0  0  0
  8 10  2  0  0  0
  9 37  1  0  0  0
  9 38  1  0  0  0
 10 11  1  0  0  0
 11 12  3  0  0  0
 13 14  1  0  0  0
 13 39  1  0  0  0
 14 15  2  0  0  0
 14 16  1  0  0  0
 16 17  1  0  0  0
 16 40  1  0  0  0
 16 41  1  0  0  0
 17 24  1  0  0  0
 17 18  2  0  0  0
 18 19  1  0  0  0
 18 21  1  0  0  0
 19 20  1  0  0  0
 20 42  1  0  0  0
 20 43  1  0  0  0
 20 44  1  0  0  0
 21 22  2  0  0  0
 21 45  1  0  0  0
 22 23  1  0  0  0
 22 27  1  0  0  0
 23 24  2  0  0  0
 23 25  1  0  0  0
 24 46  1  0  0  0
 25 26  1  0  0  0
 26 47  1  0  0  0
 26 48  1  0  0  0
 26 49  1  0  0  0
 27 28  1  0  0  0
 27 50  1  0  0  0
 28 29  2  0  0  0
 28 30  1  0  0  0
 30 51  1  0  0  0
 30 52  1  0  0  0
 30 53  1  0  0  0
M  END
> <i_m_stars>
0

> <s_m_entry_id>
3025

> <s_m_entry_name>
Jnk1_18637-1.1

> <s_m_Source_Path>
C:\Users\yujiethinkpad\Desktop\05A\JNK1

> <s_m_Source_File>
Jnk1_18637-1.sdf

> <i_m_Source_File_Index>
1

> <s_i_glide_gridfile>
glide-grid_JNK1

> <r_i_docking_score>
-7.38446667030297

> <r_i_glide_ecoul>
-7.3253116607666

> <r_i_glide_einternal>
19.8162231445313

> <r_i_glide_emodel>
-42.4707334603155

> <r_i_glide_energy>
-44.6323528289795

> <r_i_glide_erotb>
0.692531556498704

> <r_i_glide_esite>
0

> <r_i_glide_evdw>
-37.3070411682129

> <r_i_glide_gscore>
-7.38446667030297

> <r_i_glide_hbond>
-0.33974234440019

> <r_i_glide_ligand_efficiency>
-0.246148889010099

> <r_i_glide_ligand_efficiency_ln>
-1.67783128770156

> <r_i_glide_ligand_efficiency_sa>
-0.764841828369482

> <r_i_glide_lipo>
-3.23851134247818

> <r_i_glide_metal>
0

> <r_i_glide_rewards>
-1.53459573239767

> <i_i_glide_confnum>
20

> <i_i_glide_lignum>
8

> <i_i_glide_posenum>
109

> <i_i_glide_rotatable_bonds>
10

> <r_i_glide_eff_state_penalty>
0

> <s_m_job_name>
glide-dock_SP_other_0000

> <r_user_dG.exp>
-10.141692

> <r_m_Molecular_weight>
413.43681

> <r_glide_shape_similarity>
0.865342497825623

> <s_m_subgroup_title>
glide-dock_SP_other_0000_lib1

> <s_m_subgroupid>
glide-dock_SP_other_0000_lib1

> <b_m_subgroup_collapsed>
0

$$$$
