18630-1
                    3D
 Schrodinger Suite 2021-2.
 41 42  0  0  1  0            999 V2000
   24.4790   10.9652   30.3389 C   0  0  0  0  0  0
   23.0411   11.3830   30.0626 C   0  0  0  0  0  0
   22.3023   11.4362   31.2699 O   0  0  0  0  0  0
   21.5750   10.3382   31.6681 C   0  0  0  0  0  0
   21.9152    9.1238   31.1880 N   0  0  0  0  0  0
   21.1269    8.0604   31.4276 C   0  0  0  0  0  0
   19.9438    8.1878   32.1659 C   0  0  0  0  0  0
   19.6107    9.4379   32.6698 C   0  0  0  0  0  0
   18.3921    9.5659   33.2830 N   0  0  0  0  0  0
   20.4340   10.5379   32.4466 C   0  0  0  0  0  0
   20.0633   11.8608   32.8832 C   0  0  0  0  0  0
   19.7628   12.9131   33.2286 N   0  0  0  0  0  0
   21.5245    6.8352   30.8728 N   0  0  0  0  0  0
   21.0203    5.6033   30.9968 C   0  0  0  0  0  0
   20.0352    5.2870   31.6496 O   0  0  0  0  0  0
   21.7549    4.5482   30.1997 C   0  0  0  0  0  0
   23.0975    4.2551   30.8162 C   0  0  0  0  0  0
   24.2072    5.0783   30.5521 C   0  0  0  0  0  0
   25.4578    4.7422   31.0950 C   0  0  0  0  0  0
   25.6030    3.6000   31.9073 C   0  0  0  0  0  0
   26.9550    3.2297   32.4688 C   0  0  0  0  0  0
   24.4899    2.7869   32.1811 C   0  0  0  0  0  0
   23.2471    3.1137   31.6215 C   0  0  0  0  0  0
   25.0691   10.9720   29.4208 H   0  0  0  0  0  0
   24.5289    9.9599   30.7610 H   0  0  0  0  0  0
   24.9504   11.6481   31.0471 H   0  0  0  0  0  0
   23.0427   12.3852   29.6314 H   0  0  0  0  0  0
   22.5740   10.7387   29.3151 H   0  0  0  0  0  0
   19.2683    7.3678   32.3430 H   0  0  0  0  0  0
   18.0374   10.4582   33.5993 H   0  0  0  0  0  0
   17.7704    8.7774   33.3868 H   0  0  0  0  0  0
   22.3523    6.8986   30.3072 H   0  0  0  0  0  0
   21.1582    3.6379   30.1446 H   0  0  0  0  0  0
   21.8872    4.8945   29.1756 H   0  0  0  0  0  0
   24.1182    5.9475   29.9172 H   0  0  0  0  0  0
   26.3116    5.3659   30.8717 H   0  0  0  0  0  0
   26.8616    2.8781   33.4974 H   0  0  0  0  0  0
   27.3961    2.4316   31.8717 H   0  0  0  0  0  0
   27.6366    4.0817   32.4622 H   0  0  0  0  0  0
   24.5933    1.8975   32.7851 H   0  0  0  0  0  0
   22.4112    2.4485   31.7815 H   0  0  0  0  0  0
  1  2  1  0  0  0
  1 24  1  0  0  0
  1 25  1  0  0  0
  1 26  1  0  0  0
  2  3  1  0  0  0
  2 27  1  0  0  0
  2 28  1  0  0  0
  3  4  1  0  0  0
  4 10  1  0  0  0
  4  5  2  0  0  0
  5  6  1  0  0  0
  6  7  2  0  0  0
  6 13  1  0  0  0
  7  8  1  0  0  0
  7 29  1  0  0  0
  8  9  1  0  0  0
  8 10  2  0  0  0
  9 30  1  0  0  0
  9 31  1  0  0  0
 10 11  1  0  0  0
 11 12  3  0  0  0
 13 14  1  0  0  0
 13 32  1  0  0  0
 14 15  2  0  0  0
 14 16  1  0  0  0
 16 17  1  0  0  0
 16 33  1  0  0  0
 16 34  1  0  0  0
 17 23  1  0  0  0
 17 18  2  0  0  0
 18 19  1  0  0  0
 18 35  1  0  0  0
 19 20  2  0  0  0
 19 36  1  0  0  0
 20 21  1  0  0  0
 20 22  1  0  0  0
 21 37  1  0  0  0
 21 38  1  0  0  0
 21 39  1  0  0  0
 22 23  2  0  0  0
 22 40  1  0  0  0
 23 41  1  0  0  0
M  END
> <i_m_stars>
0

> <s_m_entry_id>
3028

> <s_m_entry_name>
Jnk1_18630-1.1

> <s_m_Source_Path>
C:\Users\yujiethinkpad\Desktop\05A\JNK1

> <s_m_Source_File>
Jnk1_18630-1.sdf

> <i_m_Source_File_Index>
1

> <s_i_glide_gridfile>
glide-grid_JNK1

> <r_i_docking_score>
-7.33098575911239

> <r_i_glide_ecoul>
-6.09406185150146

> <r_i_glide_einternal>
8.11912250518799

> <r_i_glide_emodel>
-41.199363520536

> <r_i_glide_energy>
-38.5583524703979

> <r_i_glide_erotb>
0.961897661652081

> <r_i_glide_esite>
0

> <r_i_glide_evdw>
-32.4642906188965

> <r_i_glide_gscore>
-7.33098575911239

> <r_i_glide_hbond>
-0.32

> <r_i_glide_ligand_efficiency>
-0.318738511265756

> <r_i_glide_ligand_efficiency_ln>
-1.77269883025705

> <r_i_glide_ligand_efficiency_sa>
-0.90644992644834

> <r_i_glide_lipo>
-3.26663552260391

> <r_i_glide_metal>
0

> <r_i_glide_rewards>
-2.16892408949051

> <i_i_glide_confnum>
1

> <i_i_glide_lignum>
21

> <i_i_glide_posenum>
290

> <i_i_glide_rotatable_bonds>
6

> <r_i_glide_eff_state_penalty>
0

> <s_m_job_name>
glide-dock_SP_other_0000

> <r_user_dG.exp>
-9.142359

> <r_m_Molecular_weight>
310.35861

> <r_glide_shape_similarity>
0.863842010498047

> <s_m_subgroup_title>
glide-dock_SP_other_0000_lib1

> <s_m_subgroupid>
glide-dock_SP_other_0000_lib1

> <b_m_subgroup_collapsed>
0

$$$$
