18659-1
                    3D
 Schrodinger Suite 2021-2.
 50 51  0  0  1  0            999 V2000
   22.7364   13.5221   28.6510 C   0  0  0  0  0  0
   23.3764   13.4828   29.9291 O   0  0  0  0  0  0
   24.2407   12.3662   30.1496 C   0  0  0  0  0  0
   23.4580   11.0529   30.3157 C   0  0  0  0  0  0
   22.4145   11.2663   31.2697 O   0  0  0  0  0  0
   21.6054   10.2024   31.6319 C   0  0  0  0  0  0
   21.9323    8.9712   31.1590 N   0  0  0  0  0  0
   21.1329    7.9037   31.3956 C   0  0  0  0  0  0
   19.9391    8.0561   32.1492 C   0  0  0  0  0  0
   19.6078    9.3177   32.6743 C   0  0  0  0  0  0
   18.4118    9.4448   33.3832 N   0  0  0  0  0  0
   20.4453   10.4257   32.4129 C   0  0  0  0  0  0
   20.0971   11.7577   32.8862 C   0  0  0  0  0  0
   19.8137   12.8054   33.2690 N   0  0  0  0  0  0
   21.5637    6.6468   30.8767 N   0  0  0  0  0  0
   21.0810    5.4057   31.1098 C   0  0  0  0  0  0
   20.0128    5.1982   31.6720 O   0  0  0  0  0  0
   21.8736    4.1948   30.5440 C   0  0  0  0  0  0
   23.3727    4.1991   30.8956 C   0  0  0  0  0  0
   23.9757    3.2296   31.7673 C   0  0  0  0  0  0
   23.2112    2.2128   32.2993 O   0  0  0  0  0  0
   23.8324    1.2851   33.1990 C   0  0  0  0  0  0
   25.3737    3.3075   32.0322 C   0  0  0  0  0  0
   26.1722    4.2820   31.4089 C   0  0  0  0  0  0
   25.5881    5.2055   30.5019 C   0  0  0  0  0  0
   24.1970    5.1633   30.2666 C   0  0  0  0  0  0
   26.3040    6.1721   29.8204 O   0  0  0  0  0  0
   27.7321    6.0760   29.8283 C   0  0  0  0  0  0
   22.0887   14.3962   28.5880 H   0  0  0  0  0  0
   22.1184   12.6425   28.4700 H   0  0  0  0  0  0
   23.4820   13.5993   27.8574 H   0  0  0  0  0  0
   24.9780   12.2897   29.3457 H   0  0  0  0  0  0
   24.8014   12.5697   31.0663 H   0  0  0  0  0  0
   23.0443   10.7225   29.3621 H   0  0  0  0  0  0
   24.1367   10.2787   30.6760 H   0  0  0  0  0  0
   19.2647    7.2435   32.3641 H   0  0  0  0  0  0
   18.0310   10.3532   33.6373 H   0  0  0  0  0  0
   17.7718    8.6621   33.4804 H   0  0  0  0  0  0
   22.4159    6.6903   30.3292 H   0  0  0  0  0  0
   21.4161    3.2710   30.9027 H   0  0  0  0  0  0
   21.7522    4.1927   29.4596 H   0  0  0  0  0  0
   23.0642    0.5935   33.5579 H   0  0  0  0  0  0
   24.5920    0.6863   32.7003 H   0  0  0  0  0  0
   24.2680    1.7865   34.0647 H   0  0  0  0  0  0
   25.8818    2.6131   32.6847 H   0  0  0  0  0  0
   27.2303    4.2995   31.6287 H   0  0  0  0  0  0
   23.7803    5.8557   29.5477 H   0  0  0  0  0  0
   28.1531    6.8650   29.2045 H   0  0  0  0  0  0
   28.1370    6.2001   30.8374 H   0  0  0  0  0  0
   28.0715    5.1215   29.4199 H   0  0  0  0  0  0
  1  2  1  0  0  0
  1 29  1  0  0  0
  1 30  1  0  0  0
  1 31  1  0  0  0
  2  3  1  0  0  0
  3  4  1  0  0  0
  3 32  1  0  0  0
  3 33  1  0  0  0
  4  5  1  0  0  0
  4 34  1  0  0  0
  4 35  1  0  0  0
  5  6  1  0  0  0
  6 12  1  0  0  0
  6  7  2  0  0  0
  7  8  1  0  0  0
  8  9  2  0  0  0
  8 15  1  0  0  0
  9 10  1  0  0  0
  9 36  1  0  0  0
 10 11  1  0  0  0
 10 12  2  0  0  0
 11 37  1  0  0  0
 11 38  1  0  0  0
 12 13  1  0  0  0
 13 14  3  0  0  0
 15 16  1  0  0  0
 15 39  1  0  0  0
 16 17  2  0  0  0
 16 18  1  0  0  0
 18 19  1  0  0  0
 18 40  1  0  0  0
 18 41  1  0  0  0
 19 26  1  0  0  0
 19 20  2  0  0  0
 20 21  1  0  0  0
 20 23  1  0  0  0
 21 22  1  0  0  0
 22 42  1  0  0  0
 22 43  1  0  0  0
 22 44  1  0  0  0
 23 24  2  0  0  0
 23 45  1  0  0  0
 24 25  1  0  0  0
 24 46  1  0  0  0
 25 26  2  0  0  0
 25 27  1  0  0  0
 26 47  1  0  0  0
 27 28  1  0  0  0
 28 48  1  0  0  0
 28 49  1  0  0  0
 28 50  1  0  0  0
M  END
> <i_m_stars>
0

> <s_m_entry_id>
3017

> <s_m_entry_name>
Jnk1_18659-1.1

> <s_m_Source_Path>
C:\Users\yujiethinkpad\Desktop\05A\JNK1

> <s_m_Source_File>
Jnk1_18659-1.sdf

> <i_m_Source_File_Index>
1

> <s_i_glide_gridfile>
glide-grid_JNK1

> <r_i_docking_score>
-7.52342414283302

> <r_i_glide_ecoul>
-7.07073068618774

> <r_i_glide_einternal>
11.3801889419556

> <r_i_glide_emodel>
-44.8897836728582

> <r_i_glide_energy>
-46.8906693458557

> <r_i_glide_erotb>
0.912493649000088

> <r_i_glide_esite>
0

> <r_i_glide_evdw>
-39.819938659668

> <r_i_glide_gscore>
-7.52342414283302

> <r_i_glide_hbond>
-0.35879270552681

> <r_i_glide_ligand_efficiency>
-0.268693719386894

> <r_i_glide_ligand_efficiency_ln>
-1.73662718949728

> <r_i_glide_ligand_efficiency_sa>
-0.815912384196233

> <r_i_glide_lipo>
-3.36313193490231

> <r_i_glide_metal>
0

> <r_i_glide_rewards>
-1.66238661549243

> <i_i_glide_confnum>
191

> <i_i_glide_lignum>
13

> <i_i_glide_posenum>
250

> <i_i_glide_rotatable_bonds>
10

> <r_i_glide_eff_state_penalty>
0

> <s_m_job_name>
glide-dock_SP_other_0000

> <r_user_dG.exp>
-9.465222

> <r_m_Molecular_weight>
386.41099

> <r_glide_shape_similarity>
0.829035222530365

> <s_m_subgroup_title>
glide-dock_SP_other_0000_lib1

> <s_m_subgroupid>
glide-dock_SP_other_0000_lib1

> <b_m_subgroup_collapsed>
0

$$$$
