18652-1
                    3D
 Schrodinger Suite 2021-2.
 55 56  0  0  1  0            999 V2000
   24.5755   10.6867   30.7881 C   0  0  0  0  0  0
   23.3031   11.3962   30.2856 C   0  0  0  0  0  0
   22.8374   10.9598   28.8740 C   0  0  0  0  0  0
   22.2581   11.4253   31.2689 O   0  0  0  0  0  0
   21.5423   10.2984   31.6689 C   0  0  0  0  0  0
   21.8870    9.0786   31.1901 N   0  0  0  0  0  0
   21.1044    8.0004   31.4442 C   0  0  0  0  0  0
   19.9415    8.1016   32.2329 C   0  0  0  0  0  0
   19.5952    9.3458   32.7608 C   0  0  0  0  0  0
   18.4108    9.4262   33.4815 N   0  0  0  0  0  0
   20.3965   10.4701   32.4710 C   0  0  0  0  0  0
   20.0024   11.7827   32.9172 C   0  0  0  0  0  0
   19.6729   12.8160   33.2701 N   0  0  0  0  0  0
   21.4876    6.7748   30.8704 N   0  0  0  0  0  0
   20.9820    5.5343   30.9884 C   0  0  0  0  0  0
   20.0149    5.1993   31.6695 O   0  0  0  0  0  0
   21.7253    4.4827   30.1726 C   0  0  0  0  0  0
   23.0991    4.2285   30.7855 C   0  0  0  0  0  0
   24.1953    5.0988   30.5278 C   0  0  0  0  0  0
   23.9713    6.2106   29.7277 O   0  0  0  0  0  0
   24.9959    7.1960   29.6250 C   0  0  0  0  0  0
   25.4606    4.7649   31.0832 C   0  0  0  0  0  0
   25.6160    3.6184   31.9054 C   0  0  0  0  0  0
   27.2849    3.1978   32.4689 S   0  0  0  0  0  0
   28.1901    4.2860   32.0687 O   0  0  0  0  0  0
   27.2293    2.7960   33.8824 O   0  0  0  0  0  0
   27.7264    1.7121   31.4688 C   0  0  0  0  0  0
   24.5130    2.7752   32.1996 C   0  0  0  0  0  0
   23.2630    3.0872   31.6050 C   0  0  0  0  0  0
   24.7182    1.6863   33.0243 O   0  0  0  0  0  0
   23.7295    0.6600   33.0671 C   0  0  0  0  0  0
   25.3653   10.7282   30.0383 H   0  0  0  0  0  0
   24.4028    9.6404   31.0235 H   0  0  0  0  0  0
   24.9469   11.1708   31.6888 H   0  0  0  0  0  0
   23.5773   12.4458   30.1860 H   0  0  0  0  0  0
   23.6470   11.0660   28.1543 H   0  0  0  0  0  0
   22.5102    9.9236   28.8408 H   0  0  0  0  0  0
   22.0189   11.5768   28.5145 H   0  0  0  0  0  0
   19.2969    7.2636   32.4452 H   0  0  0  0  0  0
   17.9915   10.3238   33.7135 H   0  0  0  0  0  0
   17.8019    8.6217   33.5830 H   0  0  0  0  0  0
   22.3104    6.8417   30.2805 H   0  0  0  0  0  0
   21.1461    3.5598   30.1357 H   0  0  0  0  0  0
   21.8247    4.8271   29.1430 H   0  0  0  0  0  0
   24.6123    8.0544   29.0796 H   0  0  0  0  0  0
   25.3164    7.5483   30.6029 H   0  0  0  0  0  0
   25.8597    6.8155   29.0765 H   0  0  0  0  0  0
   26.3284    5.3748   30.8694 H   0  0  0  0  0  0
   28.7295    1.3843   31.7452 H   0  0  0  0  0  0
   27.0092    0.9158   31.6701 H   0  0  0  0  0  0
   27.7040    1.9674   30.4096 H   0  0  0  0  0  0
   22.4129    2.4331   31.7235 H   0  0  0  0  0  0
   24.1018   -0.1643   33.6783 H   0  0  0  0  0  0
   22.7994    1.0038   33.5139 H   0  0  0  0  0  0
   23.5232    0.2634   32.0731 H   0  0  0  0  0  0
  1  2  1  0  0  0
  1 32  1  0  0  0
  1 33  1  0  0  0
  1 34  1  0  0  0
  2  3  1  0  0  0
  2  4  1  0  0  0
  2 35  1  0  0  0
  3 36  1  0  0  0
  3 37  1  0  0  0
  3 38  1  0  0  0
  4  5  1  0  0  0
  5 11  1  0  0  0
  5  6  2  0  0  0
  6  7  1  0  0  0
  7  8  2  0  0  0
  7 14  1  0  0  0
  8  9  1  0  0  0
  8 39  1  0  0  0
  9 10  1  0  0  0
  9 11  2  0  0  0
 10 40  1  0  0  0
 10 41  1  0  0  0
 11 12  1  0  0  0
 12 13  3  0  0  0
 14 15  1  0  0  0
 14 42  1  0  0  0
 15 16  2  0  0  0
 15 17  1  0  0  0
 17 18  1  0  0  0
 17 43  1  0  0  0
 17 44  1  0  0  0
 18 29  1  0  0  0
 18 19  2  0  0  0
 19 20  1  0  0  0
 19 22  1  0  0  0
 20 21  1  0  0  0
 21 45  1  0  0  0
 21 46  1  0  0  0
 21 47  1  0  0  0
 22 23  2  0  0  0
 22 48  1  0  0  0
 23 24  1  0  0  0
 23 28  1  0  0  0
 24 25  2  0  0  0
 24 26  2  0  0  0
 24 27  1  0  0  0
 27 49  1  0  0  0
 27 50  1  0  0  0
 27 51  1  0  0  0
 28 29  2  0  0  0
 28 30  1  0  0  0
 29 52  1  0  0  0
 30 31  1  0  0  0
 31 53  1  0  0  0
 31 54  1  0  0  0
 31 55  1  0  0  0
M  END
> <i_m_stars>
0

> <s_m_entry_id>
3010

> <s_m_entry_name>
Jnk1_18652-1.1

> <s_m_Source_Path>
C:\Users\yujiethinkpad\Desktop\05A\JNK1

> <s_m_Source_File>
Jnk1_18652-1.sdf

> <i_m_Source_File_Index>
1

> <s_i_glide_gridfile>
glide-grid_JNK1

> <r_i_docking_score>
-7.89975343476681

> <r_i_glide_ecoul>
-7.86614942550659

> <r_i_glide_einternal>
8.46699905395508

> <r_i_glide_emodel>
-56.4313168555109

> <r_i_glide_energy>
-48.9006609916687

> <r_i_glide_erotb>
0.49797551862125

> <r_i_glide_esite>
0

> <r_i_glide_evdw>
-41.0345115661621

> <r_i_glide_gscore>
-7.89975343476681

> <r_i_glide_hbond>
-0.417301943300943

> <r_i_glide_ligand_efficiency>
-0.25483075596022

> <r_i_glide_ligand_efficiency_ln>
-1.78163649790778

> <r_i_glide_ligand_efficiency_sa>
-0.800520405491381

> <r_i_glide_lipo>
-3.43943786187785

> <r_i_glide_metal>
0

> <r_i_glide_rewards>
-1.30934115607518

> <i_i_glide_confnum>
11

> <i_i_glide_lignum>
11

> <i_i_glide_posenum>
342

> <i_i_glide_rotatable_bonds>
9

> <r_i_glide_eff_state_penalty>
0

> <s_m_job_name>
glide-dock_SP_other_0000

> <r_user_dG.exp>
-10.682977

> <r_m_Molecular_weight>
448.50148

> <r_glide_shape_similarity>
0.859147906303406

> <s_m_subgroup_title>
glide-dock_SP_other_0000_lib1

> <s_m_subgroupid>
glide-dock_SP_other_0000_lib1

> <b_m_subgroup_collapsed>
0

$$$$
