18658-1
                    3D
 Schrodinger Suite 2021-2.
 47 48  0  0  1  0            999 V2000
   23.7955   13.2098   29.4097 O   0  0  0  0  0  0
   24.4131   12.3082   30.3196 C   0  0  0  0  0  0
   23.5506   11.0468   30.4632 C   0  0  0  0  0  0
   22.4108   11.3551   31.2699 O   0  0  0  0  0  0
   21.5862   10.3158   31.6733 C   0  0  0  0  0  0
   21.8882    9.0741   31.2211 N   0  0  0  0  0  0
   21.0647    8.0321   31.4599 C   0  0  0  0  0  0
   19.8948    8.1854   32.2332 C   0  0  0  0  0  0
   19.5891    9.4646   32.7338 C   0  0  0  0  0  0
   18.4115    9.5969   33.4507 N   0  0  0  0  0  0
   20.4223   10.5703   32.4344 C   0  0  0  0  0  0
   20.0598   11.9434   32.7813 C   0  0  0  0  0  0
   19.7680   13.0330   33.0301 N   0  0  0  0  0  0
   21.4402    6.8073   30.8703 N   0  0  0  0  0  0
   20.9726    5.5553   30.9972 C   0  0  0  0  0  0
   20.0101    5.2107   31.6723 O   0  0  0  0  0  0
   21.7258    4.5143   30.1703 C   0  0  0  0  0  0
   23.0975    4.2420   30.7803 C   0  0  0  0  0  0
   24.2046    5.1032   30.5385 C   0  0  0  0  0  0
   24.0088    6.2214   29.7447 O   0  0  0  0  0  0
   24.6756    7.4168   30.1431 C   0  0  0  0  0  0
   25.4713    4.7623   31.0981 C   0  0  0  0  0  0
   25.6190    3.6123   31.9203 C   0  0  0  0  0  0
   24.4909    2.7848   32.1965 C   0  0  0  0  0  0
   23.2520    3.0991   31.5986 C   0  0  0  0  0  0
   24.5189    1.6785   33.0245 O   0  0  0  0  0  0
   25.5117    1.6519   34.0440 C   0  0  0  0  0  0
   23.6698   12.7835   28.5718 H   0  0  0  0  0  0
   25.3962   12.0503   29.9247 H   0  0  0  0  0  0
   24.5646   12.7929   31.2870 H   0  0  0  0  0  0
   23.2545   10.6690   29.4843 H   0  0  0  0  0  0
   24.1516   10.2797   30.9542 H   0  0  0  0  0  0
   19.2277    7.3618   32.4368 H   0  0  0  0  0  0
   18.0194   10.5128   33.6709 H   0  0  0  0  0  0
   17.7446    8.8332   33.4922 H   0  0  0  0  0  0
   22.2435    6.8884   30.2599 H   0  0  0  0  0  0
   21.1498    3.5911   30.1213 H   0  0  0  0  0  0
   21.8327    4.8686   29.1448 H   0  0  0  0  0  0
   24.3584    8.2359   29.4967 H   0  0  0  0  0  0
   24.4379    7.6867   31.1739 H   0  0  0  0  0  0
   25.7571    7.3250   30.0368 H   0  0  0  0  0  0
   26.3417    5.3722   30.9055 H   0  0  0  0  0  0
   26.5891    3.3856   32.3382 H   0  0  0  0  0  0
   22.4137    2.4373   31.7565 H   0  0  0  0  0  0
   25.2883    0.8458   34.7437 H   0  0  0  0  0  0
   26.5017    1.4641   33.6271 H   0  0  0  0  0  0
   25.5315    2.5873   34.6065 H   0  0  0  0  0  0
  1  2  1  0  0  0
  1 28  1  0  0  0
  2  3  1  0  0  0
  2 29  1  0  0  0
  2 30  1  0  0  0
  3  4  1  0  0  0
  3 31  1  0  0  0
  3 32  1  0  0  0
  4  5  1  0  0  0
  5 11  1  0  0  0
  5  6  2  0  0  0
  6  7  1  0  0  0
  7  8  2  0  0  0
  7 14  1  0  0  0
  8  9  1  0  0  0
  8 33  1  0  0  0
  9 10  1  0  0  0
  9 11  2  0  0  0
 10 34  1  0  0  0
 10 35  1  0  0  0
 11 12  1  0  0  0
 12 13  3  0  0  0
 14 15  1  0  0  0
 14 36  1  0  0  0
 15 16  2  0  0  0
 15 17  1  0  0  0
 17 18  1  0  0  0
 17 37  1  0  0  0
 17 38  1  0  0  0
 18 25  1  0  0  0
 18 19  2  0  0  0
 19 20  1  0  0  0
 19 22  1  0  0  0
 20 21  1  0  0  0
 21 39  1  0  0  0
 21 40  1  0  0  0
 21 41  1  0  0  0
 22 23  2  0  0  0
 22 42  1  0  0  0
 23 24  1  0  0  0
 23 43  1  0  0  0
 24 25  2  0  0  0
 24 26  1  0  0  0
 25 44  1  0  0  0
 26 27  1  0  0  0
 27 45  1  0  0  0
 27 46  1  0  0  0
 27 47  1  0  0  0
M  END
> <i_m_stars>
0

> <s_m_entry_id>
3016

> <s_m_entry_name>
Jnk1_18658-1.1

> <s_m_Source_Path>
C:\Users\yujiethinkpad\Desktop\05A\JNK1

> <s_m_Source_File>
Jnk1_18658-1.sdf

> <i_m_Source_File_Index>
1

> <s_i_glide_gridfile>
glide-grid_JNK1

> <r_i_docking_score>
-7.56862179644992

> <r_i_glide_ecoul>
-7.25143814086914

> <r_i_glide_einternal>
10.3096904754639

> <r_i_glide_emodel>
-55.1193805406892

> <r_i_glide_energy>
-44.8274536132813

> <r_i_glide_erotb>
0.974981300053865

> <r_i_glide_esite>
0

> <r_i_glide_evdw>
-37.5760154724121

> <r_i_glide_gscore>
-7.56862179644992

> <r_i_glide_hbond>
-0.32

> <r_i_glide_ligand_efficiency>
-0.280319325794442

> <r_i_glide_ligand_efficiency_ln>
-1.76185037573126

> <r_i_glide_ligand_efficiency_sa>
-0.840957976459438

> <r_i_glide_lipo>
-3.56086228136676

> <r_i_glide_metal>
0

> <r_i_glide_rewards>
-1.69622432038605

> <i_i_glide_confnum>
130

> <i_i_glide_lignum>
12

> <i_i_glide_posenum>
119

> <i_i_glide_rotatable_bonds>
10

> <r_i_glide_eff_state_penalty>
0

> <s_m_job_name>
glide-dock_SP_other_0000

> <r_user_dG.exp>
-9.699398

> <r_m_Molecular_weight>
372.3839

> <r_glide_shape_similarity>
0.915651440620422

> <s_m_subgroup_title>
glide-dock_SP_other_0000_lib1

> <s_m_subgroupid>
glide-dock_SP_other_0000_lib1

> <b_m_subgroup_collapsed>
0

$$$$
