18624-1
                    3D
 Schrodinger Suite 2021-2.
 38 39  0  0  1  0            999 V2000
   24.4847   10.7068   30.8884 C   0  0  0  0  0  0
   23.1712   11.1686   30.2708 C   0  0  0  0  0  0
   22.1816   11.3275   31.2686 O   0  0  0  0  0  0
   21.4246   10.2484   31.6698 C   0  0  0  0  0  0
   21.7780    9.0160   31.2532 N   0  0  0  0  0  0
   21.0456    7.9466   31.6142 C   0  0  0  0  0  0
   19.9156    8.0936   32.4421 C   0  0  0  0  0  0
   19.5423    9.3695   32.8707 C   0  0  0  0  0  0
   18.4166    9.4707   33.6683 N   0  0  0  0  0  0
   20.3038   10.4790   32.4744 C   0  0  0  0  0  0
   19.9517   11.8351   32.8369 C   0  0  0  0  0  0
   19.6740   12.9163   33.1123 N   0  0  0  0  0  0
   21.5070    6.6695   31.2024 N   0  0  0  0  0  0
   20.8771    5.4874   31.1411 C   0  0  0  0  0  0
   19.6793    5.3679   31.3518 O   0  0  0  0  0  0
   21.6469    4.2446   30.6616 C   0  0  0  0  0  0
   23.1533    4.3052   30.8489 C   0  0  0  0  0  0
   23.8229    3.3654   31.6578 C   0  0  0  0  0  0
   25.2158    3.4475   31.8158 C   0  0  0  0  0  0
   25.9393    4.4659   31.1731 C   0  0  0  0  0  0
   25.2818    5.3846   30.3445 C   0  0  0  0  0  0
   23.8999    5.2804   30.1622 C   0  0  0  0  0  0
   25.2650   10.6504   30.1318 H   0  0  0  0  0  0
   24.3801    9.7203   31.3424 H   0  0  0  0  0  0
   24.8128   11.4013   31.6612 H   0  0  0  0  0  0
   23.3207   12.1432   29.8027 H   0  0  0  0  0  0
   22.8473   10.4968   29.4726 H   0  0  0  0  0  0
   19.3386    7.2447   32.7773 H   0  0  0  0  0  0
   18.0046   10.3607   33.9157 H   0  0  0  0  0  0
   17.9003    8.6472   33.9423 H   0  0  0  0  0  0
   22.4569    6.6580   30.8736 H   0  0  0  0  0  0
   21.2471    3.3750   31.1825 H   0  0  0  0  0  0
   21.4374    4.0975   29.6024 H   0  0  0  0  0  0
   23.2736    2.5843   32.1624 H   0  0  0  0  0  0
   25.7341    2.7321   32.4377 H   0  0  0  0  0  0
   27.0084    4.5393   31.3117 H   0  0  0  0  0  0
   25.8460    6.1516   29.8317 H   0  0  0  0  0  0
   23.4159    5.9704   29.4856 H   0  0  0  0  0  0
  1  2  1  0  0  0
  1 23  1  0  0  0
  1 24  1  0  0  0
  1 25  1  0  0  0
  2  3  1  0  0  0
  2 26  1  0  0  0
  2 27  1  0  0  0
  3  4  1  0  0  0
  4 10  1  0  0  0
  4  5  2  0  0  0
  5  6  1  0  0  0
  6  7  2  0  0  0
  6 13  1  0  0  0
  7  8  1  0  0  0
  7 28  1  0  0  0
  8  9  1  0  0  0
  8 10  2  0  0  0
  9 29  1  0  0  0
  9 30  1  0  0  0
 10 11  1  0  0  0
 11 12  3  0  0  0
 13 14  1  0  0  0
 13 31  1  0  0  0
 14 15  2  0  0  0
 14 16  1  0  0  0
 16 17  1  0  0  0
 16 32  1  0  0  0
 16 33  1  0  0  0
 17 22  1  0  0  0
 17 18  2  0  0  0
 18 19  1  0  0  0
 18 34  1  0  0  0
 19 20  2  0  0  0
 19 35  1  0  0  0
 20 21  1  0  0  0
 20 36  1  0  0  0
 21 22  2  0  0  0
 21 37  1  0  0  0
 22 38  1  0  0  0
M  END
> <i_m_stars>
2

> <s_m_entry_id>
2994

> <s_m_entry_name>
Jnk1_18624-1.1

> <s_m_Source_Path>
C:\Users\yujiethinkpad\Desktop\05A\JNK1

> <s_m_Source_File>
Jnk1_18624-1.sdf

> <i_m_Source_File_Index>
1

> <s_i_glide_gridfile>
glide-grid_JNK1

> <r_i_docking_score>
-8.08531864482148

> <r_i_glide_ecoul>
-7.59042263031006

> <r_i_glide_einternal>
8.2496223449707

> <r_i_glide_emodel>
-42.8600818513189

> <r_i_glide_energy>
-40.9012174606323

> <r_i_glide_erotb>
0.834467228461277

> <r_i_glide_esite>
0

> <r_i_glide_evdw>
-33.3107948303223

> <r_i_glide_gscore>
-8.08531864482148

> <r_i_glide_hbond>
-0.479124520511508

> <r_i_glide_ligand_efficiency>
-0.367514483855522

> <r_i_glide_ligand_efficiency_ln>
-1.97634679595766

> <r_i_glide_ligand_efficiency_sa>
-1.02979003728764

> <r_i_glide_lipo>
-3.31614754278336

> <r_i_glide_metal>
0

> <r_i_glide_rewards>
-2.32041067392526

> <i_i_glide_confnum>
3

> <i_i_glide_lignum>
15

> <i_i_glide_posenum>
205

> <i_i_glide_rotatable_bonds>
6

> <r_i_glide_eff_state_penalty>
0

> <s_m_job_name>
glide-dock_SP_other_0535

> <r_user_dG.exp>
-8.49337

> <r_m_Molecular_weight>
296.33152

> <r_glide_shape_similarity>
0.84112149477005

> <s_m_subgroup_title>
glide-dock_SP_other_0535_lib1

> <s_m_subgroupid>
glide-dock_SP_other_0535_lib1

> <b_m_subgroup_collapsed>
0

$$$$
