18638-1
                    3D
 Schrodinger Suite 2021-2.
 52 53  0  0  1  0            999 V2000
   24.0844   12.3947   30.2283 C   0  0  0  0  0  0
   23.3559   11.0698   30.4516 C   0  0  0  0  0  0
   22.2163   11.3265   31.2675 O   0  0  0  0  0  0
   21.4370   10.2606   31.6697 C   0  0  0  0  0  0
   21.7984    9.0285   31.2493 N   0  0  0  0  0  0
   21.0743    7.9523   31.6032 C   0  0  0  0  0  0
   19.9303    8.0733   32.4315 C   0  0  0  0  0  0
   19.5448    9.3584   32.8707 C   0  0  0  0  0  0
   18.4111    9.4596   33.6690 N   0  0  0  0  0  0
   20.3045   10.4865   32.4764 C   0  0  0  0  0  0
   19.9531   11.8496   32.8430 C   0  0  0  0  0  0
   19.6740   12.9346   33.1196 N   0  0  0  0  0  0
   21.5493    6.7349   31.0720 N   0  0  0  0  0  0
   21.0238    5.5062   31.0756 C   0  0  0  0  0  0
   20.0042    5.1990   31.6707 O   0  0  0  0  0  0
   21.7738    4.4767   30.2278 C   0  0  0  0  0  0
   23.2012    4.2867   30.7315 C   0  0  0  0  0  0
   24.2684    5.1519   30.3408 C   0  0  0  0  0  0
   24.0034    6.2527   29.5367 O   0  0  0  0  0  0
   25.0266    7.2442   29.3692 C   0  0  0  0  0  0
   25.5783    4.8420   30.7807 C   0  0  0  0  0  0
   25.8144    3.7447   31.6338 C   0  0  0  0  0  0
   27.5448    3.3952   32.0433 S   0  0  0  0  0  0
   28.3397    4.6005   31.7375 O   0  0  0  0  0  0
   27.6133    2.7999   33.3948 O   0  0  0  0  0  0
   28.0217    2.0889   30.8171 C   0  0  0  0  0  0
   24.7512    2.8912   32.0459 C   0  0  0  0  0  0
   23.4473    3.1849   31.5781 C   0  0  0  0  0  0
   25.0198    1.7927   32.8460 O   0  0  0  0  0  0
   23.9956    0.8179   33.0476 C   0  0  0  0  0  0
   24.9666   12.2597   29.6016 H   0  0  0  0  0  0
   24.4080   12.8292   31.1760 H   0  0  0  0  0  0
   23.4325   13.1168   29.7359 H   0  0  0  0  0  0
   23.0498   10.6438   29.4952 H   0  0  0  0  0  0
   24.0264   10.3596   30.9396 H   0  0  0  0  0  0
   19.3413    7.2176   32.7271 H   0  0  0  0  0  0
   17.9956   10.3514   33.9223 H   0  0  0  0  0  0
   17.8917    8.6333   33.9527 H   0  0  0  0  0  0
   22.4030    6.8245   30.5331 H   0  0  0  0  0  0
   21.2349    3.5270   30.2261 H   0  0  0  0  0  0
   21.7896    4.8223   29.1956 H   0  0  0  0  0  0
   24.6107    8.1027   28.8421 H   0  0  0  0  0  0
   25.4021    7.6020   30.3285 H   0  0  0  0  0  0
   25.8586    6.8628   28.7717 H   0  0  0  0  0  0
   26.4200    5.4448   30.4778 H   0  0  0  0  0  0
   29.0585    1.7979   30.9799 H   0  0  0  0  0  0
   27.3767    1.2228   30.9513 H   0  0  0  0  0  0
   27.8992    2.4806   29.8093 H   0  0  0  0  0  0
   22.6162    2.5430   31.8254 H   0  0  0  0  0  0
   24.4162   -0.0350   33.5786 H   0  0  0  0  0  0
   23.1743    1.1985   33.6520 H   0  0  0  0  0  0
   23.5974    0.4455   32.1006 H   0  0  0  0  0  0
  1  2  1  0  0  0
  1 31  1  0  0  0
  1 32  1  0  0  0
  1 33  1  0  0  0
  2  3  1  0  0  0
  2 34  1  0  0  0
  2 35  1  0  0  0
  3  4  1  0  0  0
  4 10  1  0  0  0
  4  5  2  0  0  0
  5  6  1  0  0  0
  6  7  2  0  0  0
  6 13  1  0  0  0
  7  8  1  0  0  0
  7 36  1  0  0  0
  8  9  1  0  0  0
  8 10  2  0  0  0
  9 37  1  0  0  0
  9 38  1  0  0  0
 10 11  1  0  0  0
 11 12  3  0  0  0
 13 14  1  0  0  0
 13 39  1  0  0  0
 14 15  2  0  0  0
 14 16  1  0  0  0
 16 17  1  0  0  0
 16 40  1  0  0  0
 16 41  1  0  0  0
 17 28  1  0  0  0
 17 18  2  0  0  0
 18 19  1  0  0  0
 18 21  1  0  0  0
 19 20  1  0  0  0
 20 42  1  0  0  0
 20 43  1  0  0  0
 20 44  1  0  0  0
 21 22  2  0  0  0
 21 45  1  0  0  0
 22 23  1  0  0  0
 22 27  1  0  0  0
 23 24  2  0  0  0
 23 25  2  0  0  0
 23 26  1  0  0  0
 26 46  1  0  0  0
 26 47  1  0  0  0
 26 48  1  0  0  0
 27 28  2  0  0  0
 27 29  1  0  0  0
 28 49  1  0  0  0
 29 30  1  0  0  0
 30 50  1  0  0  0
 30 51  1  0  0  0
 30 52  1  0  0  0
M  END
> <i_m_stars>
0

> <s_m_entry_id>
2995

> <s_m_entry_name>
Jnk1_18638-1.1

> <s_m_Source_Path>
C:\Users\yujiethinkpad\Desktop\05A\JNK1

> <s_m_Source_File>
Jnk1_18638-1.sdf

> <i_m_Source_File_Index>
1

> <s_i_glide_gridfile>
glide-grid_JNK1

> <r_i_docking_score>
-8.07381552954353

> <r_i_glide_ecoul>
-8.12692165374756

> <r_i_glide_einternal>
9.08071708679199

> <r_i_glide_emodel>
-54.4487044088767

> <r_i_glide_energy>
-48.2387380599976

> <r_i_glide_erotb>
0.52754325173273

> <r_i_glide_esite>
0

> <r_i_glide_evdw>
-40.11181640625

> <r_i_glide_gscore>
-8.07381552954353

> <r_i_glide_hbond>
-0.492683950815614

> <r_i_glide_ligand_efficiency>
-0.269127184318118

> <r_i_glide_ligand_efficiency_ln>
-1.83445885957843

> <r_i_glide_ligand_efficiency_sa>
-0.836240734401018

> <r_i_glide_lipo>
-3.4505135609272

> <r_i_glide_metal>
0

> <r_i_glide_rewards>
-1.43353220115882

> <i_i_glide_confnum>
9

> <i_i_glide_lignum>
9

> <i_i_glide_posenum>
229

> <i_i_glide_rotatable_bonds>
9

> <r_i_glide_eff_state_penalty>
0

> <s_m_job_name>
glide-dock_SP_other_0535

> <r_user_dG.exp>
-10.093111

> <r_m_Molecular_weight>
434.47439

> <r_glide_shape_similarity>
0.873124361038208

> <s_m_subgroup_title>
glide-dock_SP_other_0535_lib1

> <s_m_subgroupid>
glide-dock_SP_other_0535_lib1

> <b_m_subgroup_collapsed>
0

$$$$
