18636-1
                    3D
 Schrodinger Suite 2021-2.
 38 39  0  0  1  0            999 V2000
   24.4854   10.7106   30.8937 C   0  0  0  0  0  0
   23.1805   11.1874   30.2777 C   0  0  0  0  0  0
   22.1843   11.3401   31.2692 O   0  0  0  0  0  0
   21.4278   10.2611   31.6733 C   0  0  0  0  0  0
   21.7858    9.0390   31.2547 N   0  0  0  0  0  0
   21.0648    7.9742   31.6176 C   0  0  0  0  0  0
   19.9257    8.0939   32.4351 C   0  0  0  0  0  0
   19.5467    9.3674   32.8709 C   0  0  0  0  0  0
   18.4195    9.4655   33.6662 N   0  0  0  0  0  0
   20.3053   10.4815   32.4770 C   0  0  0  0  0  0
   19.9496   11.8336   32.8377 C   0  0  0  0  0  0
   19.6641   12.9126   33.1142 N   0  0  0  0  0  0
   21.5495    6.7649   31.1187 N   0  0  0  0  0  0
   21.0306    5.5484   31.0887 C   0  0  0  0  0  0
   20.0135    5.1976   31.6707 O   0  0  0  0  0  0
   21.8044    4.5974   30.1937 C   0  0  0  0  0  0
   23.1684    4.2840   30.7677 C   0  0  0  0  0  0
   24.3406    5.0368   30.5068 C   0  0  0  0  0  0
   24.3409    6.6018   29.4414 Br  0  0  0  0  0  0
   25.5721    4.6299   31.0453 C   0  0  0  0  0  0
   25.6316    3.5040   31.8759 C   0  0  0  0  0  0
   24.4665    2.7721   32.1341 C   0  0  0  0  0  0
   24.4812    1.2707   33.2777 Br  0  0  0  0  0  0
   23.2593    3.1391   31.5548 C   0  0  0  0  0  0
   25.2592   10.6413   30.1279 H   0  0  0  0  0  0
   24.3713    9.7245   31.3468 H   0  0  0  0  0  0
   24.8291   11.3953   31.6671 H   0  0  0  0  0  0
   23.3419   12.1650   29.8233 H   0  0  0  0  0  0
   22.8539   10.5310   29.4699 H   0  0  0  0  0  0
   19.3436    7.2362   32.7392 H   0  0  0  0  0  0
   18.0056   10.3558   33.9086 H   0  0  0  0  0  0
   17.8950    8.6441   33.9346 H   0  0  0  0  0  0
   22.3883    6.8608   30.5720 H   0  0  0  0  0  0
   21.2328    3.6772   30.0571 H   0  0  0  0  0  0
   21.9024    5.0385   29.2014 H   0  0  0  0  0  0
   26.4670    5.2022   30.8467 H   0  0  0  0  0  0
   26.5722    3.2045   32.3209 H   0  0  0  0  0  0
   22.3945    2.5118   31.6927 H   0  0  0  0  0  0
  1  2  1  0  0  0
  1 25  1  0  0  0
  1 26  1  0  0  0
  1 27  1  0  0  0
  2  3  1  0  0  0
  2 28  1  0  0  0
  2 29  1  0  0  0
  3  4  1  0  0  0
  4 10  1  0  0  0
  4  5  2  0  0  0
  5  6  1  0  0  0
  6  7  2  0  0  0
  6 13  1  0  0  0
  7  8  1  0  0  0
  7 30  1  0  0  0
  8  9  1  0  0  0
  8 10  2  0  0  0
  9 31  1  0  0  0
  9 32  1  0  0  0
 10 11  1  0  0  0
 11 12  3  0  0  0
 13 14  1  0  0  0
 13 33  1  0  0  0
 14 15  2  0  0  0
 14 16  1  0  0  0
 16 17  1  0  0  0
 16 34  1  0  0  0
 16 35  1  0  0  0
 17 24  1  0  0  0
 17 18  2  0  0  0
 18 19  1  0  0  0
 18 20  1  0  0  0
 20 21  2  0  0  0
 20 36  1  0  0  0
 21 22  1  0  0  0
 21 37  1  0  0  0
 22 23  1  0  0  0
 22 24  2  0  0  0
 24 38  1  0  0  0
M  END
> <i_m_stars>
0

> <s_m_entry_id>
3004

> <s_m_entry_name>
Jnk1_18636-1.1

> <s_m_Source_Path>
C:\Users\yujiethinkpad\Desktop\05A\JNK1

> <s_m_Source_File>
Jnk1_18636-1.sdf

> <i_m_Source_File_Index>
1

> <s_i_glide_gridfile>
glide-grid_JNK1

> <r_i_docking_score>
-7.78784609882072

> <r_i_glide_ecoul>
-7.15375804901123

> <r_i_glide_einternal>
8.45233821868896

> <r_i_glide_emodel>
-51.0765825100339

> <r_i_glide_energy>
-45.8038549423218

> <r_i_glide_erotb>
0.389456225959289

> <r_i_glide_esite>
0

> <r_i_glide_evdw>
-38.6500968933105

> <r_i_glide_gscore>
-7.78784609882072

> <r_i_glide_hbond>
-0.479833920526236

> <r_i_glide_ligand_efficiency>
-0.324493587450863

> <r_i_glide_ligand_efficiency_ln>
-1.86398893241932

> <r_i_glide_ligand_efficiency_sa>
-0.93600147314548

> <r_i_glide_lipo>
-3.45367508145674

> <r_i_glide_metal>
0

> <r_i_glide_rewards>
-1.23822477077982

> <i_i_glide_confnum>
9

> <i_i_glide_lignum>
7

> <i_i_glide_posenum>
9

> <i_i_glide_rotatable_bonds>
6

> <r_i_glide_eff_state_penalty>
0

> <s_m_job_name>
glide-dock_SP_other_0535

> <r_user_dG.exp>
-7.512318

> <r_m_Molecular_weight>
454.13358

> <r_glide_shape_similarity>
0.870070219039917

> <s_m_subgroup_title>
glide-dock_SP_other_0535_lib1

> <s_m_subgroupid>
glide-dock_SP_other_0535_lib1

> <b_m_subgroup_collapsed>
0

$$$$
