18632-1
                    3D
 Schrodinger Suite 2021-2.
 42 43  0  0  1  0            999 V2000
   24.5079   10.7900   30.9618 C   0  0  0  0  0  0
   23.1906   11.1545   30.2891 C   0  0  0  0  0  0
   22.1826   11.3203   31.2687 O   0  0  0  0  0  0
   21.4259   10.2423   31.6710 C   0  0  0  0  0  0
   21.7782    9.0063   31.2559 N   0  0  0  0  0  0
   21.0455    7.9382   31.6198 C   0  0  0  0  0  0
   19.9147    8.0905   32.4445 C   0  0  0  0  0  0
   19.5432    9.3671   32.8711 C   0  0  0  0  0  0
   18.4147    9.4692   33.6652 N   0  0  0  0  0  0
   20.3052   10.4769   32.4751 C   0  0  0  0  0  0
   19.9537   11.8341   32.8382 C   0  0  0  0  0  0
   19.6737   12.9146   33.1159 N   0  0  0  0  0  0
   21.5093    6.6571   31.2282 N   0  0  0  0  0  0
   20.8619    5.4851   31.1320 C   0  0  0  0  0  0
   19.6494    5.3892   31.2709 O   0  0  0  0  0  0
   21.6321    4.2180   30.7061 C   0  0  0  0  0  0
   23.1407    4.2651   30.8678 C   0  0  0  0  0  0
   23.8580    5.2527   30.1866 C   0  0  0  0  0  0
   25.2386    5.4028   30.3719 C   0  0  0  0  0  0
   25.9538    6.4249   29.8066 O   0  0  0  0  0  0
   25.2268    7.5517   29.3469 C   0  0  0  0  0  0
   25.9224    4.4739   31.1703 C   0  0  0  0  0  0
   25.2242    3.4324   31.8020 C   0  0  0  0  0  0
   23.8304    3.3275   31.6576 C   0  0  0  0  0  0
   25.2954   10.6797   30.2207 H   0  0  0  0  0  0
   24.4196    9.8531   31.5118 H   0  0  0  0  0  0
   24.8124   11.5670   31.6668 H   0  0  0  0  0  0
   23.3105   12.1076   29.7752 H   0  0  0  0  0  0
   22.9166   10.4324   29.5171 H   0  0  0  0  0  0
   19.3346    7.2406   32.7772 H   0  0  0  0  0  0
   18.0042   10.3587   33.9130 H   0  0  0  0  0  0
   17.8978    8.6473   33.9432 H   0  0  0  0  0  0
   22.4725    6.6285   30.9359 H   0  0  0  0  0  0
   21.2402    3.3699   31.2681 H   0  0  0  0  0  0
   21.4050    4.0207   29.6599 H   0  0  0  0  0  0
   23.3235    5.9107   29.5205 H   0  0  0  0  0  0
   25.9235    8.3654   29.1483 H   0  0  0  0  0  0
   24.6994    7.3330   28.4175 H   0  0  0  0  0  0
   24.5151    7.9126   30.0959 H   0  0  0  0  0  0
   26.9901    4.5693   31.3080 H   0  0  0  0  0  0
   25.7606    2.7198   32.4123 H   0  0  0  0  0  0
   23.2986    2.5333   32.1615 H   0  0  0  0  0  0
  1  2  1  0  0  0
  1 25  1  0  0  0
  1 26  1  0  0  0
  1 27  1  0  0  0
  2  3  1  0  0  0
  2 28  1  0  0  0
  2 29  1  0  0  0
  3  4  1  0  0  0
  4 10  1  0  0  0
  4  5  2  0  0  0
  5  6  1  0  0  0
  6  7  2  0  0  0
  6 13  1  0  0  0
  7  8  1  0  0  0
  7 30  1  0  0  0
  8  9  1  0  0  0
  8 10  2  0  0  0
  9 31  1  0  0  0
  9 32  1  0  0  0
 10 11  1  0  0  0
 11 12  3  0  0  0
 13 14  1  0  0  0
 13 33  1  0  0  0
 14 15  2  0  0  0
 14 16  1  0  0  0
 16 17  1  0  0  0
 16 34  1  0  0  0
 16 35  1  0  0  0
 17 24  1  0  0  0
 17 18  2  0  0  0
 18 19  1  0  0  0
 18 36  1  0  0  0
 19 20  1  0  0  0
 19 22  2  0  0  0
 20 21  1  0  0  0
 21 37  1  0  0  0
 21 38  1  0  0  0
 21 39  1  0  0  0
 22 23  1  0  0  0
 22 40  1  0  0  0
 23 24  2  0  0  0
 23 41  1  0  0  0
 24 42  1  0  0  0
M  END
> <i_m_stars>
0

> <s_m_entry_id>
3001

> <s_m_entry_name>
Jnk1_18632-1.1

> <s_m_Source_Path>
C:\Users\yujiethinkpad\Desktop\05A\JNK1

> <s_m_Source_File>
Jnk1_18632-1.sdf

> <i_m_Source_File_Index>
1

> <s_i_glide_gridfile>
glide-grid_JNK1

> <r_i_docking_score>
-7.91168612982588

> <r_i_glide_ecoul>
-6.87887001037598

> <r_i_glide_einternal>
7.42625951766968

> <r_i_glide_emodel>
-51.2172215081516

> <r_i_glide_energy>
-43.2125492095947

> <r_i_glide_erotb>
0.88041336613276

> <r_i_glide_esite>
0

> <r_i_glide_evdw>
-36.3336791992188

> <r_i_glide_gscore>
-7.91168612982588

> <r_i_glide_hbond>
-0.480068331428499

> <r_i_glide_ligand_efficiency>
-0.329653588742745

> <r_i_glide_ligand_efficiency_ln>
-1.89362953448759

> <r_i_glide_ligand_efficiency_sa>
-0.950885492421717

> <r_i_glide_lipo>
-3.37323830759474

> <r_i_glide_metal>
0

> <r_i_glide_rewards>
-2.09027839541807

> <i_i_glide_confnum>
5

> <i_i_glide_lignum>
3

> <i_i_glide_posenum>
291

> <i_i_glide_rotatable_bonds>
7

> <r_i_glide_eff_state_penalty>
0

> <s_m_job_name>
glide-dock_SP_other_0535

> <r_user_dG.exp>
-9.083236

> <r_m_Molecular_weight>
326.35801

> <r_glide_shape_similarity>
0.892874836921692

> <s_m_subgroup_title>
glide-dock_SP_other_0535_lib1

> <s_m_subgroupid>
glide-dock_SP_other_0535_lib1

> <b_m_subgroup_collapsed>
0

$$$$
