18637-1
                    3D
 Schrodinger Suite 2021-2.
 53 54  0  0  1  0            999 V2000
   24.0861   12.3705   30.2539 C   0  0  0  0  0  0
   23.3342   11.0470   30.4548 C   0  0  0  0  0  0
   22.1776   11.2292   31.2697 O   0  0  0  0  0  0
   21.4613   10.1061   31.6843 C   0  0  0  0  0  0
   21.8416    8.8848   31.2295 N   0  0  0  0  0  0
   21.1132    7.7777   31.5481 C   0  0  0  0  0  0
   19.9860    7.8503   32.4007 C   0  0  0  0  0  0
   19.5658    9.1002   32.8682 C   0  0  0  0  0  0
   18.4114    9.1693   33.6591 N   0  0  0  0  0  0
   20.3103   10.2399   32.4863 C   0  0  0  0  0  0
   19.8505   11.5222   32.9168 C   0  0  0  0  0  0
   19.4528   12.5224   33.2731 N   0  0  0  0  0  0
   21.5233    6.5430   30.9880 N   0  0  0  0  0  0
   20.8777    5.3531   30.8792 C   0  0  0  0  0  0
   19.6841    5.2081   31.1332 O   0  0  0  0  0  0
   21.6635    4.2148   30.1901 C   0  0  0  0  0  0
   23.1554    4.2357   30.5615 C   0  0  0  0  0  0
   23.7330    3.2473   31.3953 C   0  0  0  0  0  0
   22.9220    2.2104   31.7852 O   0  0  0  0  0  0
   23.4133    1.2695   32.7316 C   0  0  0  0  0  0
   25.1039    3.3429   31.7302 C   0  0  0  0  0  0
   25.9075    4.3970   31.2326 C   0  0  0  0  0  0
   25.3272    5.4002   30.3936 C   0  0  0  0  0  0
   23.9704    5.2592   30.0260 C   0  0  0  0  0  0
   26.0641    6.4933   29.9879 O   0  0  0  0  0  0
   25.4444    7.5675   29.2867 C   0  0  0  0  0  0
   27.2742    4.3118   31.6653 N   0  0  0  0  0  0
   28.4093    4.8826   31.2021 C   0  0  0  0  0  0
   28.5051    5.5920   30.1970 O   0  0  0  0  0  0
   29.6654    4.6220   32.0457 C   0  0  0  0  0  0
   24.9328   12.1988   29.5951 H   0  0  0  0  0  0
   24.4740   12.7389   31.2015 H   0  0  0  0  0  0
   23.4747   13.1543   29.8114 H   0  0  0  0  0  0
   23.0922   10.6060   29.4853 H   0  0  0  0  0  0
   24.0096   10.3404   30.9449 H   0  0  0  0  0  0
   19.4207    6.9802   32.6851 H   0  0  0  0  0  0
   17.9857   10.0579   33.9219 H   0  0  0  0  0  0
   17.8757    8.3287   33.8920 H   0  0  0  0  0  0
   22.4629    6.5609   30.6192 H   0  0  0  0  0  0
   21.2067    3.2321   30.3465 H   0  0  0  0  0  0
   21.5539    4.4227   29.1264 H   0  0  0  0  0  0
   22.5923    0.6159   33.0388 H   0  0  0  0  0  0
   24.1834    0.6320   32.2876 H   0  0  0  0  0  0
   23.8209    1.7653   33.6175 H   0  0  0  0  0  0
   25.5653    2.5899   32.3477 H   0  0  0  0  0  0
   23.5195    5.9550   29.3347 H   0  0  0  0  0  0
   26.1147    8.4293   29.3052 H   0  0  0  0  0  0
   25.3139    7.2965   28.2382 H   0  0  0  0  0  0
   24.5000    7.8817   29.7385 H   0  0  0  0  0  0
   27.4531    3.5927   32.3626 H   0  0  0  0  0  0
   30.3913    4.0188   31.5028 H   0  0  0  0  0  0
   30.1256    5.5784   32.2911 H   0  0  0  0  0  0
   29.4236    4.1124   32.9792 H   0  0  0  0  0  0
  1  2  1  0  0  0
  1 31  1  0  0  0
  1 32  1  0  0  0
  1 33  1  0  0  0
  2  3  1  0  0  0
  2 34  1  0  0  0
  2 35  1  0  0  0
  3  4  1  0  0  0
  4 10  1  0  0  0
  4  5  2  0  0  0
  5  6  1  0  0  0
  6  7  2  0  0  0
  6 13  1  0  0  0
  7  8  1  0  0  0
  7 36  1  0  0  0
  8  9  1  0  0  0
  8 10  2  0  0  0
  9 37  1  0  0  0
  9 38  1  0  0  0
 10 11  1  0  0  0
 11 12  3  0  0  0
 13 14  1  0  0  0
 13 39  1  0  0  0
 14 15  2  0  0  0
 14 16  1  0  0  0
 16 17  1  0  0  0
 16 40  1  0  0  0
 16 41  1  0  0  0
 17 24  1  0  0  0
 17 18  2  0  0  0
 18 19  1  0  0  0
 18 21  1  0  0  0
 19 20  1  0  0  0
 20 42  1  0  0  0
 20 43  1  0  0  0
 20 44  1  0  0  0
 21 22  2  0  0  0
 21 45  1  0  0  0
 22 23  1  0  0  0
 22 27  1  0  0  0
 23 24  2  0  0  0
 23 25  1  0  0  0
 24 46  1  0  0  0
 25 26  1  0  0  0
 26 47  1  0  0  0
 26 48  1  0  0  0
 26 49  1  0  0  0
 27 28  1  0  0  0
 27 50  1  0  0  0
 28 29  2  0  0  0
 28 30  1  0  0  0
 30 51  1  0  0  0
 30 52  1  0  0  0
 30 53  1  0  0  0
M  END
> <i_m_stars>
0

> <s_m_entry_id>
2991

> <s_m_entry_name>
Jnk1_18637-1.1

> <s_m_Source_Path>
C:\Users\yujiethinkpad\Desktop\05A\JNK1

> <s_m_Source_File>
Jnk1_18637-1.sdf

> <i_m_Source_File_Index>
1

> <s_i_glide_gridfile>
glide-grid_JNK1

> <r_i_docking_score>
-8.1503136262332

> <r_i_glide_ecoul>
-6.15866136550903

> <r_i_glide_einternal>
12.3171215057373

> <r_i_glide_emodel>
-52.6282618927765

> <r_i_glide_energy>
-48.2124257087708

> <r_i_glide_erotb>
0.692531556498704

> <r_i_glide_esite>
0

> <r_i_glide_evdw>
-42.0537643432617

> <r_i_glide_gscore>
-8.1503136262332

> <r_i_glide_hbond>
-0.608

> <r_i_glide_ligand_efficiency>
-0.27167712087444

> <r_i_glide_ligand_efficiency_ln>
-1.85184006065984

> <r_i_glide_ligand_efficiency_sa>
-0.844163980147959

> <r_i_glide_lipo>
-3.52799902705558

> <r_i_glide_metal>
0

> <r_i_glide_rewards>
-1.68035873368688

> <i_i_glide_confnum>
13

> <i_i_glide_lignum>
8

> <i_i_glide_posenum>
284

> <i_i_glide_rotatable_bonds>
10

> <r_i_glide_eff_state_penalty>
0

> <s_m_job_name>
glide-dock_SP_other_0535

> <r_user_dG.exp>
-10.141692

> <r_m_Molecular_weight>
413.43681

> <r_glide_shape_similarity>
0.87175852060318

> <s_m_subgroup_title>
glide-dock_SP_other_0535_lib1

> <s_m_subgroupid>
glide-dock_SP_other_0535_lib1

> <b_m_subgroup_collapsed>
0

$$$$
