18630-1
                    3D
 Schrodinger Suite 2021-2.
 41 42  0  0  1  0            999 V2000
   24.4899   10.6884   30.8914 C   0  0  0  0  0  0
   23.1836   11.1589   30.2738 C   0  0  0  0  0  0
   22.1921   11.3206   31.2701 O   0  0  0  0  0  0
   21.4284   10.2460   31.6704 C   0  0  0  0  0  0
   21.7821    9.0106   31.2561 N   0  0  0  0  0  0
   21.0447    7.9443   31.6166 C   0  0  0  0  0  0
   19.9144    8.0958   32.4419 C   0  0  0  0  0  0
   19.5425    9.3722   32.8705 C   0  0  0  0  0  0
   18.4163    9.4730   33.6697 N   0  0  0  0  0  0
   20.3064   10.4798   32.4739 C   0  0  0  0  0  0
   19.9584   11.8354   32.8367 C   0  0  0  0  0  0
   19.6797   12.9163   33.1142 N   0  0  0  0  0  0
   21.5110    6.6675   31.2164 N   0  0  0  0  0  0
   20.8685    5.4937   31.1351 C   0  0  0  0  0  0
   19.6637    5.3854   31.3186 O   0  0  0  0  0  0
   21.6403    4.2405   30.6847 C   0  0  0  0  0  0
   23.1453    4.2982   30.8505 C   0  0  0  0  0  0
   23.8848    5.2731   30.1617 C   0  0  0  0  0  0
   25.2648    5.3896   30.3496 C   0  0  0  0  0  0
   25.9291    4.4754   31.1758 C   0  0  0  0  0  0
   27.4202    4.5921   31.3800 C   0  0  0  0  0  0
   25.2103    3.4517   31.8138 C   0  0  0  0  0  0
   23.8167    3.3641   31.6578 C   0  0  0  0  0  0
   25.2697   10.6253   30.1337 H   0  0  0  0  0  0
   24.3726    9.7003   31.3383 H   0  0  0  0  0  0
   24.8263   11.3729   31.6687 H   0  0  0  0  0  0
   23.3381   12.1298   29.8037 H   0  0  0  0  0  0
   22.8604   10.4926   29.4711 H   0  0  0  0  0  0
   19.3338    7.2481   32.7761 H   0  0  0  0  0  0
   18.0040   10.3627   33.9184 H   0  0  0  0  0  0
   17.9014    8.6464   33.9409 H   0  0  0  0  0  0
   22.4686    6.6439   30.9145 H   0  0  0  0  0  0
   21.2541    3.3903   31.2509 H   0  0  0  0  0  0
   21.4123    4.0516   29.6361 H   0  0  0  0  0  0
   23.3982    5.9612   29.4886 H   0  0  0  0  0  0
   25.8170    6.1666   29.8427 H   0  0  0  0  0  0
   27.6890    4.3162   32.4009 H   0  0  0  0  0  0
   27.9509    3.9314   30.6906 H   0  0  0  0  0  0
   27.7534    5.6178   31.2123 H   0  0  0  0  0  0
   25.7194    2.7367   32.4438 H   0  0  0  0  0  0
   23.2695    2.5844   32.1671 H   0  0  0  0  0  0
  1  2  1  0  0  0
  1 24  1  0  0  0
  1 25  1  0  0  0
  1 26  1  0  0  0
  2  3  1  0  0  0
  2 27  1  0  0  0
  2 28  1  0  0  0
  3  4  1  0  0  0
  4 10  1  0  0  0
  4  5  2  0  0  0
  5  6  1  0  0  0
  6  7  2  0  0  0
  6 13  1  0  0  0
  7  8  1  0  0  0
  7 29  1  0  0  0
  8  9  1  0  0  0
  8 10  2  0  0  0
  9 30  1  0  0  0
  9 31  1  0  0  0
 10 11  1  0  0  0
 11 12  3  0  0  0
 13 14  1  0  0  0
 13 32  1  0  0  0
 14 15  2  0  0  0
 14 16  1  0  0  0
 16 17  1  0  0  0
 16 33  1  0  0  0
 16 34  1  0  0  0
 17 23  1  0  0  0
 17 18  2  0  0  0
 18 19  1  0  0  0
 18 35  1  0  0  0
 19 20  2  0  0  0
 19 36  1  0  0  0
 20 21  1  0  0  0
 20 22  1  0  0  0
 21 37  1  0  0  0
 21 38  1  0  0  0
 21 39  1  0  0  0
 22 23  2  0  0  0
 22 40  1  0  0  0
 23 41  1  0  0  0
M  END
> <i_m_stars>
0

> <s_m_entry_id>
2996

> <s_m_entry_name>
Jnk1_18630-1.1

> <s_m_Source_Path>
C:\Users\yujiethinkpad\Desktop\05A\JNK1

> <s_m_Source_File>
Jnk1_18630-1.sdf

> <i_m_Source_File_Index>
1

> <s_i_glide_gridfile>
glide-grid_JNK1

> <r_i_docking_score>
-8.06250179587161

> <r_i_glide_ecoul>
-7.56896066665649

> <r_i_glide_einternal>
8.12306785583496

> <r_i_glide_emodel>
-47.0989393530836

> <r_i_glide_energy>
-42.1360383033752

> <r_i_glide_erotb>
0.961897661652081

> <r_i_glide_esite>
0

> <r_i_glide_evdw>
-34.5670776367188

> <r_i_glide_gscore>
-8.06250179587161

> <r_i_glide_hbond>
-0.478863796888831

> <r_i_glide_ligand_efficiency>
-0.350543556342244

> <r_i_glide_ligand_efficiency_ln>
-1.94958604096612

> <r_i_glide_ligand_efficiency_sa>
-0.996899243839521

> <r_i_glide_lipo>
-3.4616114111938

> <r_i_glide_metal>
0

> <r_i_glide_rewards>
-2.22022626760665

> <i_i_glide_confnum>
1

> <i_i_glide_lignum>
21

> <i_i_glide_posenum>
331

> <i_i_glide_rotatable_bonds>
6

> <r_i_glide_eff_state_penalty>
0

> <s_m_job_name>
glide-dock_SP_other_0535

> <r_user_dG.exp>
-9.142359

> <r_m_Molecular_weight>
310.35861

> <r_glide_shape_similarity>
0.866954267024994

> <s_m_subgroup_title>
glide-dock_SP_other_0535_lib1

> <s_m_subgroupid>
glide-dock_SP_other_0535_lib1

> <b_m_subgroup_collapsed>
0

$$$$
