17124-1
                    3D
 Schrodinger Suite 2021-2.
 46 47  0  0  1  0            999 V2000
   24.0605   12.3486   30.2396 C   0  0  0  0  0  0
   23.2876   11.0389   30.4079 C   0  0  0  0  0  0
   22.1827   11.2635   31.2667 O   0  0  0  0  0  0
   21.4163   10.1855   31.6710 C   0  0  0  0  0  0
   21.7618    8.9540   31.2308 N   0  0  0  0  0  0
   21.0356    7.8777   31.5943 C   0  0  0  0  0  0
   19.9144    8.0094   32.4325 C   0  0  0  0  0  0
   19.5380    9.2785   32.8685 C   0  0  0  0  0  0
   18.4099    9.3509   33.6607 N   0  0  0  0  0  0
   20.2882   10.3999   32.4744 C   0  0  0  0  0  0
   19.8952   11.7451   32.8317 C   0  0  0  0  0  0
   19.5760   12.8167   33.1040 N   0  0  0  0  0  0
   21.4593    6.6150   31.1211 N   0  0  0  0  0  0
   20.8885    5.3998   31.1980 C   0  0  0  0  0  0
   19.7748    5.2069   31.6582 O   0  0  0  0  0  0
   21.6207    4.1968   30.5828 C   0  0  0  0  0  0
   23.1249    4.2281   30.7924 C   0  0  0  0  0  0
   23.8035    3.2564   31.5643 C   0  0  0  0  0  0
   23.0804    2.2077   32.0768 O   0  0  0  0  0  0
   23.7454    1.1983   32.8105 C   0  0  0  0  0  0
   25.2000    3.3770   31.7273 C   0  0  0  0  0  0
   25.8976    4.4406   31.1368 C   0  0  0  0  0  0
   27.7747    4.5757   31.3800 Br  0  0  0  0  0  0
   25.2300    5.3810   30.3392 C   0  0  0  0  0  0
   23.8526    5.2247   30.1240 C   0  0  0  0  0  0
   25.9614    6.4088   29.7975 O   0  0  0  0  0  0
   25.3024    7.3461   28.9705 C   0  0  0  0  0  0
   24.8372   12.2187   29.4900 H   0  0  0  0  0  0
   24.5449   12.6446   31.1670 H   0  0  0  0  0  0
   23.4142   13.1648   29.9057 H   0  0  0  0  0  0
   22.9279   10.6935   29.4363 H   0  0  0  0  0  0
   23.9508   10.2710   30.8088 H   0  0  0  0  0  0
   19.3244    7.1720   32.7671 H   0  0  0  0  0  0
   17.9394   10.2298   33.8215 H   0  0  0  0  0  0
   17.8637    8.5222   33.8624 H   0  0  0  0  0  0
   22.3356    6.6301   30.6330 H   0  0  0  0  0  0
   21.1887    3.2738   30.9651 H   0  0  0  0  0  0
   21.4162    4.1987   29.5109 H   0  0  0  0  0  0
   23.0026    0.4804   33.1738 H   0  0  0  0  0  0
   24.4502    0.6563   32.1816 H   0  0  0  0  0  0
   24.2621    1.5971   33.6876 H   0  0  0  0  0  0
   25.7673    2.6598   32.2997 H   0  0  0  0  0  0
   23.3219    5.8938   29.4641 H   0  0  0  0  0  0
   26.0268    8.0742   28.6151 H   0  0  0  0  0  0
   24.8689    6.8671   28.0938 H   0  0  0  0  0  0
   24.5248    7.8917   29.5120 H   0  0  0  0  0  0
  1  2  1  0  0  0
  1 28  1  0  0  0
  1 29  1  0  0  0
  1 30  1  0  0  0
  2  3  1  0  0  0
  2 31  1  0  0  0
  2 32  1  0  0  0
  3  4  1  0  0  0
  4 10  1  0  0  0
  4  5  2  0  0  0
  5  6  1  0  0  0
  6  7  2  0  0  0
  6 13  1  0  0  0
  7  8  1  0  0  0
  7 33  1  0  0  0
  8  9  1  0  0  0
  8 10  2  0  0  0
  9 34  1  0  0  0
  9 35  1  0  0  0
 10 11  1  0  0  0
 11 12  3  0  0  0
 13 14  1  0  0  0
 13 36  1  0  0  0
 14 15  2  0  0  0
 14 16  1  0  0  0
 16 17  1  0  0  0
 16 37  1  0  0  0
 16 38  1  0  0  0
 17 25  1  0  0  0
 17 18  2  0  0  0
 18 19  1  0  0  0
 18 21  1  0  0  0
 19 20  1  0  0  0
 20 39  1  0  0  0
 20 40  1  0  0  0
 20 41  1  0  0  0
 21 22  2  0  0  0
 21 42  1  0  0  0
 22 23  1  0  0  0
 22 24  1  0  0  0
 24 25  2  0  0  0
 24 26  1  0  0  0
 25 43  1  0  0  0
 26 27  1  0  0  0
 27 44  1  0  0  0
 27 45  1  0  0  0
 27 46  1  0  0  0
M  END
> <i_m_stars>
0

> <s_m_entry_id>
2998

> <s_m_entry_name>
Jnk1_17124-1.1

> <s_m_Source_Path>
C:\Users\yujiethinkpad\Desktop\05A\FEP1\Jnk1

> <s_m_Source_File>
Jnk1_17124-1.sdf

> <i_m_Source_File_Index>
1

> <s_i_glide_gridfile>
glide-grid_JNK1

> <r_i_docking_score>
-8.042486557483

> <r_i_glide_ecoul>
-7.1811408996582

> <r_i_glide_einternal>
6.55822372436523

> <r_i_glide_emodel>
-59.3805167898543

> <r_i_glide_energy>
-44.5388717651367

> <r_i_glide_erotb>
0.525776395733918

> <r_i_glide_esite>
0

> <r_i_glide_evdw>
-37.3577308654785

> <r_i_glide_gscore>
-8.042486557483

> <r_i_glide_hbond>
-0.541324317069114

> <r_i_glide_ligand_efficiency>
-0.29786987249937

> <r_i_glide_ligand_efficiency_ln>
-1.87215827982861

> <r_i_glide_ligand_efficiency_sa>
-0.89360961651638

> <r_i_glide_lipo>
-3.67770203347443

> <r_i_glide_metal>
0

> <r_i_glide_rewards>
-1.40417892445072

> <i_i_glide_confnum>
18

> <i_i_glide_lignum>
1

> <i_i_glide_posenum>
332

> <i_i_glide_rotatable_bonds>
8

> <r_i_glide_eff_state_penalty>
0

> <s_m_job_name>
glide-dock_SP_other_0535

> <r_user_dG.exp>
-9.675922

> <r_m_Molecular_weight>
435.28553

> <r_glide_shape_similarity>
0.970052242279053

> <r_m_RMSD_1801>
0

> <r_m_RMSD_1804>
0.421531583673854

> <s_m_subgroup_title>
glide-dock_SP_other_0535_lib1

> <s_m_subgroupid>
glide-dock_SP_other_0535_lib1

> <b_m_subgroup_collapsed>
0

$$$$
