18625-1
                    3D
 Schrodinger Suite 2021-2.
 38 39  0  0  1  0            999 V2000
   24.0686   12.3779   30.2370 C   0  0  0  0  0  0
   23.3366   11.0571   30.4588 C   0  0  0  0  0  0
   22.2013   11.3143   31.2695 O   0  0  0  0  0  0
   21.4249   10.2520   31.6724 C   0  0  0  0  0  0
   21.7781    9.0256   31.2566 N   0  0  0  0  0  0
   21.0585    7.9576   31.6093 C   0  0  0  0  0  0
   19.9230    8.0894   32.4310 C   0  0  0  0  0  0
   19.5437    9.3649   32.8694 C   0  0  0  0  0  0
   18.4141    9.4660   33.6662 N   0  0  0  0  0  0
   20.3038   10.4790   32.4762 C   0  0  0  0  0  0
   19.9552   11.8336   32.8399 C   0  0  0  0  0  0
   19.6772   12.9147   33.1160 N   0  0  0  0  0  0
   21.5497    6.7382   31.1125 N   0  0  0  0  0  0
   21.0657    5.5027   31.1445 C   0  0  0  0  0  0
   20.0110    5.1991   31.6711 O   0  0  0  0  0  0
   21.8570    4.4546   30.3673 C   0  0  0  0  0  0
   23.2934    4.2897   30.8374 C   0  0  0  0  0  0
   24.3540    5.1230   30.4007 C   0  0  0  0  0  0
   24.1136    6.4679   29.3569 Cl  0  0  0  0  0  0
   25.6689    4.8670   30.8116 C   0  0  0  0  0  0
   25.9458    3.7929   31.6609 C   0  0  0  0  0  0
   24.9052    2.9615   32.0924 C   0  0  0  0  0  0
   23.5929    3.2073   31.6793 C   0  0  0  0  0  0
   24.9650   12.2268   29.6367 H   0  0  0  0  0  0
   24.3710   12.8246   31.1849 H   0  0  0  0  0  0
   23.4354   13.0974   29.7163 H   0  0  0  0  0  0
   23.0312   10.6339   29.4993 H   0  0  0  0  0  0
   24.0051   10.3432   30.9463 H   0  0  0  0  0  0
   19.3358    7.2372   32.7352 H   0  0  0  0  0  0
   18.0046   10.3563   33.9193 H   0  0  0  0  0  0
   17.8947    8.6447   33.9437 H   0  0  0  0  0  0
   22.4033    6.8276   30.5871 H   0  0  0  0  0  0
   21.3404    3.4942   30.4338 H   0  0  0  0  0  0
   21.8504    4.7230   29.3102 H   0  0  0  0  0  0
   26.4721    5.5059   30.4793 H   0  0  0  0  0  0
   26.9567    3.5991   31.9851 H   0  0  0  0  0  0
   25.1147    2.1203   32.7363 H   0  0  0  0  0  0
   22.8105    2.5386   32.0080 H   0  0  0  0  0  0
  1  2  1  0  0  0
  1 24  1  0  0  0
  1 25  1  0  0  0
  1 26  1  0  0  0
  2  3  1  0  0  0
  2 27  1  0  0  0
  2 28  1  0  0  0
  3  4  1  0  0  0
  4 10  1  0  0  0
  4  5  2  0  0  0
  5  6  1  0  0  0
  6  7  2  0  0  0
  6 13  1  0  0  0
  7  8  1  0  0  0
  7 29  1  0  0  0
  8  9  1  0  0  0
  8 10  2  0  0  0
  9 30  1  0  0  0
  9 31  1  0  0  0
 10 11  1  0  0  0
 11 12  3  0  0  0
 13 14  1  0  0  0
 13 32  1  0  0  0
 14 15  2  0  0  0
 14 16  1  0  0  0
 16 17  1  0  0  0
 16 33  1  0  0  0
 16 34  1  0  0  0
 17 23  1  0  0  0
 17 18  2  0  0  0
 18 19  1  0  0  0
 18 20  1  0  0  0
 20 21  2  0  0  0
 20 35  1  0  0  0
 21 22  1  0  0  0
 21 36  1  0  0  0
 22 23  2  0  0  0
 22 37  1  0  0  0
 23 38  1  0  0  0
M  END
> <i_m_stars>
0

> <s_m_entry_id>
2987

> <s_m_entry_name>
Jnk1_18625-1.1

> <s_m_Source_Path>
C:\Users\yujiethinkpad\Desktop\05A\JNK1

> <s_m_Source_File>
Jnk1_18625-1.sdf

> <i_m_Source_File_Index>
1

> <s_i_glide_gridfile>
glide-grid_JNK1

> <r_i_docking_score>
-8.27001652906104

> <r_i_glide_ecoul>
-7.38509368896484

> <r_i_glide_einternal>
7.97347545623779

> <r_i_glide_emodel>
-48.8006677584301

> <r_i_glide_energy>
-42.9407768249512

> <r_i_glide_erotb>
0.687793016403273

> <r_i_glide_esite>
0

> <r_i_glide_evdw>
-35.5556831359863

> <r_i_glide_gscore>
-8.27001652906104

> <r_i_glide_hbond>
-0.482292527241843

> <r_i_glide_ligand_efficiency>
-0.359565936046132

> <r_i_glide_ligand_efficiency_ln>
-1.9997649850909

> <r_i_glide_ligand_efficiency_sa>
-1.02255769153227

> <r_i_glide_lipo>
-3.49771962998762

> <r_i_glide_metal>
0

> <r_i_glide_rewards>
-2.09224917809081

> <i_i_glide_confnum>
10

> <i_i_glide_lignum>
16

> <i_i_glide_posenum>
14

> <i_i_glide_rotatable_bonds>
6

> <r_i_glide_eff_state_penalty>
0

> <s_m_job_name>
glide-dock_SP_other_0535

> <r_user_dG.exp>
-8.105004

> <r_m_Molecular_weight>
330.77655

> <r_glide_shape_similarity>
0.863154768943787

> <s_m_subgroup_title>
glide-dock_SP_other_0535_lib1

> <s_m_subgroupid>
glide-dock_SP_other_0535_lib1

> <b_m_subgroup_collapsed>
0

$$$$
