18629-1
                    3D
 Schrodinger Suite 2021-2.
 41 42  0  0  1  0            999 V2000
   24.4879   10.7301   30.8870 C   0  0  0  0  0  0
   23.1676   11.1663   30.2666 C   0  0  0  0  0  0
   22.1819   11.3226   31.2693 O   0  0  0  0  0  0
   21.4256   10.2457   31.6715 C   0  0  0  0  0  0
   21.7746    9.0124   31.2538 N   0  0  0  0  0  0
   21.0394    7.9460   31.6138 C   0  0  0  0  0  0
   19.9078    8.0961   32.4385 C   0  0  0  0  0  0
   19.5394    9.3727   32.8692 C   0  0  0  0  0  0
   18.4118    9.4759   33.6678 N   0  0  0  0  0  0
   20.3045   10.4802   32.4756 C   0  0  0  0  0  0
   19.9536   11.8364   32.8406 C   0  0  0  0  0  0
   19.6724   12.9171   33.1165 N   0  0  0  0  0  0
   21.5051    6.6687   31.2098 N   0  0  0  0  0  0
   20.8705    5.4892   31.1401 C   0  0  0  0  0  0
   19.6684    5.3760   31.3273 O   0  0  0  0  0  0
   21.6386    4.2348   30.6852 C   0  0  0  0  0  0
   23.1442    4.2859   30.8597 C   0  0  0  0  0  0
   23.8735    5.2687   30.1791 C   0  0  0  0  0  0
   25.2490    5.4016   30.3703 C   0  0  0  0  0  0
   25.9841    6.5427   29.7109 C   0  0  0  0  0  0
   25.9302    4.4774   31.1740 C   0  0  0  0  0  0
   25.2188    3.4440   31.8047 C   0  0  0  0  0  0
   23.8235    3.3463   31.6566 C   0  0  0  0  0  0
   25.2658   10.6799   30.1276 H   0  0  0  0  0  0
   24.4037    9.7416   31.3436 H   0  0  0  0  0  0
   24.8166   11.4314   31.6545 H   0  0  0  0  0  0
   23.2938   12.1353   29.7847 H   0  0  0  0  0  0
   22.8464   10.4862   29.4712 H   0  0  0  0  0  0
   19.3264    7.2464   32.7736 H   0  0  0  0  0  0
   17.9986   10.3633   33.9193 H   0  0  0  0  0  0
   17.9018    8.6512   33.9456 H   0  0  0  0  0  0
   22.4544    6.6503   30.8840 H   0  0  0  0  0  0
   21.2486    3.3717   31.2258 H   0  0  0  0  0  0
   21.4228    4.0607   29.6315 H   0  0  0  0  0  0
   23.3772    5.9649   29.5200 H   0  0  0  0  0  0
   27.0605    6.3609   29.6937 H   0  0  0  0  0  0
   25.6464    6.6765   28.6807 H   0  0  0  0  0  0
   25.7991    7.4664   30.2610 H   0  0  0  0  0  0
   26.9977    4.5607   31.3214 H   0  0  0  0  0  0
   25.7468    2.7280   32.4187 H   0  0  0  0  0  0
   23.2890    2.5479   32.1491 H   0  0  0  0  0  0
  1  2  1  0  0  0
  1 24  1  0  0  0
  1 25  1  0  0  0
  1 26  1  0  0  0
  2  3  1  0  0  0
  2 27  1  0  0  0
  2 28  1  0  0  0
  3  4  1  0  0  0
  4 10  1  0  0  0
  4  5  2  0  0  0
  5  6  1  0  0  0
  6  7  2  0  0  0
  6 13  1  0  0  0
  7  8  1  0  0  0
  7 29  1  0  0  0
  8  9  1  0  0  0
  8 10  2  0  0  0
  9 30  1  0  0  0
  9 31  1  0  0  0
 10 11  1  0  0  0
 11 12  3  0  0  0
 13 14  1  0  0  0
 13 32  1  0  0  0
 14 15  2  0  0  0
 14 16  1  0  0  0
 16 17  1  0  0  0
 16 33  1  0  0  0
 16 34  1  0  0  0
 17 23  1  0  0  0
 17 18  2  0  0  0
 18 19  1  0  0  0
 18 35  1  0  0  0
 19 20  1  0  0  0
 19 21  2  0  0  0
 20 36  1  0  0  0
 20 37  1  0  0  0
 20 38  1  0  0  0
 21 22  1  0  0  0
 21 39  1  0  0  0
 22 23  2  0  0  0
 22 40  1  0  0  0
 23 41  1  0  0  0
M  END
> <i_m_stars>
0

> <s_m_entry_id>
3000

> <s_m_entry_name>
Jnk1_18629-1.1

> <s_m_Source_Path>
C:\Users\yujiethinkpad\Desktop\05A\JNK1

> <s_m_Source_File>
Jnk1_18629-1.sdf

> <i_m_Source_File_Index>
1

> <s_i_glide_gridfile>
glide-grid_JNK1

> <r_i_docking_score>
-7.9896347558474

> <r_i_glide_ecoul>
-7.7883358001709

> <r_i_glide_einternal>
7.40303993225098

> <r_i_glide_emodel>
-48.4235296785828

> <r_i_glide_energy>
-42.3873920440674

> <r_i_glide_erotb>
0.961897661652081

> <r_i_glide_esite>
0

> <r_i_glide_evdw>
-34.5990562438965

> <r_i_glide_gscore>
-7.9896347558474

> <r_i_glide_hbond>
-0.477081247778041

> <r_i_glide_ligand_efficiency>
-0.347375424167278

> <r_i_glide_ligand_efficiency_ln>
-1.93196612996648

> <r_i_glide_ligand_efficiency_sa>
-0.987889497368747

> <r_i_glide_lipo>
-3.3539398906566

> <r_i_glide_metal>
0

> <r_i_glide_rewards>
-2.22230809684438

> <i_i_glide_confnum>
5

> <i_i_glide_lignum>
20

> <i_i_glide_posenum>
252

> <i_i_glide_rotatable_bonds>
6

> <r_i_glide_eff_state_penalty>
0

> <s_m_job_name>
glide-dock_SP_other_0535

> <r_user_dG.exp>
-8.67377

> <r_m_Molecular_weight>
310.35861

> <r_glide_shape_similarity>
0.872045457363129

> <s_m_subgroup_title>
glide-dock_SP_other_0535_lib1

> <s_m_subgroupid>
glide-dock_SP_other_0535_lib1

> <b_m_subgroup_collapsed>
0

$$$$
