18633-1
                    3D
 Schrodinger Suite 2021-2.
 42 43  0  0  1  0            999 V2000
   18.0115    9.2119   33.2757 C   0  0  0  0  0  0
   19.2878    9.6611   33.8808 C   0  0  0  0  0  0
   19.8755   10.5451   32.9704 O   0  0  0  0  0  0
   20.7487    9.9908   32.0838 C   0  0  0  0  0  0
   20.7094    8.6537   31.8728 N   0  0  0  0  0  0
   21.6707    8.0918   31.1412 C   0  0  0  0  0  0
   22.7014    8.8730   30.5740 C   0  0  0  0  0  0
   22.7092   10.2692   30.7483 C   0  0  0  0  0  0
   23.7175   11.0517   30.1905 N   0  0  0  0  0  0
   21.6854   10.8444   31.5046 C   0  0  0  0  0  0
   21.5564   12.2842   31.6700 C   0  0  0  0  0  0
   21.4450   13.4269   31.8099 N   0  0  0  0  0  0
   21.7984    6.7107   30.9169 N   0  0  0  0  0  0
   21.0455    5.6357   31.1754 C   0  0  0  0  0  0
   19.9299    5.6679   31.6748 O   0  0  0  0  0  0
   21.6462    4.2959   30.7030 C   0  0  0  0  0  0
   23.1668    4.2694   30.8102 C   0  0  0  0  0  0
   23.8186    3.3800   31.6805 C   0  0  0  0  0  0
   25.2127    3.4545   31.8344 C   0  0  0  0  0  0
   25.9580    4.4388   31.1469 C   0  0  0  0  0  0
   25.3121    5.2834   30.2429 C   0  0  0  0  0  0
   23.9422    5.1498   30.0282 C   0  0  0  0  0  0
   27.3092    4.6300   31.2754 O   0  0  0  0  0  0
   28.0437    3.6556   31.9877 C   0  0  0  0  0  0
   17.3628    8.7991   34.0395 H   0  0  0  0  0  0
   18.1399    8.4778   32.4803 H   0  0  0  0  0  0
   17.5639   10.1086   32.8699 H   0  0  0  0  0  0
   19.1129   10.1926   34.8162 H   0  0  0  0  0  0
   19.9077    8.7917   34.0696 H   0  0  0  0  0  0
   23.4889    8.4045   30.0019 H   0  0  0  0  0  0
   23.5894   12.0513   30.1568 H   0  0  0  0  0  0
   24.3161   10.6700   29.4768 H   0  0  0  0  0  0
   22.6727    6.4474   30.4961 H   0  0  0  0  0  0
   21.2105    3.4739   31.2695 H   0  0  0  0  0  0
   21.3613    4.1328   29.6635 H   0  0  0  0  0  0
   23.2533    2.6591   32.2540 H   0  0  0  0  0  0
   25.6825    2.7695   32.5235 H   0  0  0  0  0  0
   25.8826    6.0083   29.6806 H   0  0  0  0  0  0
   23.4854    5.7720   29.2720 H   0  0  0  0  0  0
   29.1017    3.9151   31.9624 H   0  0  0  0  0  0
   27.7460    3.5998   33.0351 H   0  0  0  0  0  0
   27.9363    2.6691   31.5345 H   0  0  0  0  0  0
  1  2  1  0  0  0
  1 25  1  0  0  0
  1 26  1  0  0  0
  1 27  1  0  0  0
  2  3  1  0  0  0
  2 28  1  0  0  0
  2 29  1  0  0  0
  3  4  1  0  0  0
  4 10  1  0  0  0
  4  5  2  0  0  0
  5  6  1  0  0  0
  6  7  2  0  0  0
  6 13  1  0  0  0
  7  8  1  0  0  0
  7 30  1  0  0  0
  8  9  1  0  0  0
  8 10  2  0  0  0
  9 31  1  0  0  0
  9 32  1  0  0  0
 10 11  1  0  0  0
 11 12  3  0  0  0
 13 14  1  0  0  0
 13 33  1  0  0  0
 14 15  2  0  0  0
 14 16  1  0  0  0
 16 17  1  0  0  0
 16 34  1  0  0  0
 16 35  1  0  0  0
 17 22  1  0  0  0
 17 18  2  0  0  0
 18 19  1  0  0  0
 18 36  1  0  0  0
 19 20  2  0  0  0
 19 37  1  0  0  0
 20 21  1  0  0  0
 20 23  1  0  0  0
 21 22  2  0  0  0
 21 38  1  0  0  0
 22 39  1  0  0  0
 23 24  1  0  0  0
 24 40  1  0  0  0
 24 41  1  0  0  0
 24 42  1  0  0  0
M  END
> <i_m_stars>
0

> <s_m_entry_id>
3007

> <s_m_entry_name>
Jnk1_18633-1.1

> <s_m_Source_Path>
C:\Users\yujiethinkpad\Desktop\05A\JNK1

> <s_m_Source_File>
Jnk1_18633-1.sdf

> <i_m_Source_File_Index>
1

> <s_i_glide_gridfile>
glide-grid_JNK1

> <r_i_docking_score>
-6.34314695463767

> <r_i_glide_ecoul>
-3.47168707847595

> <r_i_glide_einternal>
4.28199672698975

> <r_i_glide_emodel>
-27.7883904480844

> <r_i_glide_energy>
-35.5464513301849

> <r_i_glide_erotb>
0.88041336613276

> <r_i_glide_esite>
0

> <r_i_glide_evdw>
-32.074764251709

> <r_i_glide_gscore>
-6.34314695463767

> <r_i_glide_hbond>
-0.308310482832261

> <r_i_glide_ligand_efficiency>
-0.264297789776569

> <r_i_glide_ligand_efficiency_ln>
-1.51820613429229

> <r_i_glide_ligand_efficiency_sa>
-0.762366746669296

> <r_i_glide_lipo>
-2.96280312424029

> <r_i_glide_metal>
0

> <r_i_glide_rewards>
-1.82795543934104

> <i_i_glide_confnum>
6

> <i_i_glide_lignum>
4

> <i_i_glide_posenum>
31

> <i_i_glide_rotatable_bonds>
7

> <r_i_glide_eff_state_penalty>
0

> <s_m_job_name>
glide-dock_SP_other_0535

> <r_user_dG.exp>
-9.174299

> <r_m_Molecular_weight>
326.35801

> <r_glide_shape_similarity>
0.787774682044983

> <s_m_subgroup_title>
glide-dock_SP_other_0535_lib1

> <s_m_subgroupid>
glide-dock_SP_other_0535_lib1

> <b_m_subgroup_collapsed>
0

$$$$
