18635-1
                    3D
 Schrodinger Suite 2021-2.
 44 45  0  0  1  0            999 V2000
   24.4890   10.7851   30.8668 C   0  0  0  0  0  0
   23.1547   11.1835   30.2588 C   0  0  0  0  0  0
   22.1767   11.3350   31.2703 O   0  0  0  0  0  0
   21.4223   10.2549   31.6714 C   0  0  0  0  0  0
   21.7758    9.0277   31.2527 N   0  0  0  0  0  0
   21.0528    7.9584   31.6139 C   0  0  0  0  0  0
   19.9219    8.0918   32.4383 C   0  0  0  0  0  0
   19.5441    9.3680   32.8711 C   0  0  0  0  0  0
   18.4148    9.4678   33.6651 N   0  0  0  0  0  0
   20.3036   10.4814   32.4786 C   0  0  0  0  0  0
   19.9510   11.8356   32.8397 C   0  0  0  0  0  0
   19.6700   12.9169   33.1120 N   0  0  0  0  0  0
   21.5304    6.7289   31.1248 N   0  0  0  0  0  0
   21.0263    5.4994   31.1474 C   0  0  0  0  0  0
   19.9771    5.1988   31.6700 O   0  0  0  0  0  0
   21.8003    4.4300   30.3917 C   0  0  0  0  0  0
   23.2816    4.4131   30.7183 C   0  0  0  0  0  0
   24.2221    5.3060   30.1363 C   0  0  0  0  0  0
   23.8588    6.3718   29.1296 C   0  0  0  0  0  0
   25.5824    5.2040   30.4625 C   0  0  0  0  0  0
   26.0193    4.2127   31.3418 C   0  0  0  0  0  0
   25.0909    3.3256   31.9100 C   0  0  0  0  0  0
   25.5294    2.2518   32.8668 C   0  0  0  0  0  0
   23.7333    3.4213   31.5995 C   0  0  0  0  0  0
   25.2575   10.7136   30.0976 H   0  0  0  0  0  0
   24.4191    9.8146   31.3538 H   0  0  0  0  0  0
   24.8060   11.5124   31.6135 H   0  0  0  0  0  0
   23.2661   12.1504   29.7698 H   0  0  0  0  0  0
   22.8446   10.4906   29.4740 H   0  0  0  0  0  0
   19.3430    7.2390   32.7540 H   0  0  0  0  0  0
   18.0069   10.3602   33.9147 H   0  0  0  0  0  0
   17.9024    8.6419   33.9418 H   0  0  0  0  0  0
   22.3964    6.7969   30.6212 H   0  0  0  0  0  0
   21.3695    3.4562   30.6266 H   0  0  0  0  0  0
   21.6399    4.5563   29.3215 H   0  0  0  0  0  0
   24.7062    6.5653   28.4659 H   0  0  0  0  0  0
   23.0188    6.0673   28.4987 H   0  0  0  0  0  0
   23.6122    7.3152   29.6170 H   0  0  0  0  0  0
   26.3050    5.8828   30.0327 H   0  0  0  0  0  0
   27.0707    4.1365   31.5830 H   0  0  0  0  0  0
   26.4607    2.5305   33.3653 H   0  0  0  0  0  0
   24.7777    2.0817   33.6404 H   0  0  0  0  0  0
   25.6799    1.3178   32.3241 H   0  0  0  0  0  0
   23.0348    2.7148   32.0285 H   0  0  0  0  0  0
  1  2  1  0  0  0
  1 25  1  0  0  0
  1 26  1  0  0  0
  1 27  1  0  0  0
  2  3  1  0  0  0
  2 28  1  0  0  0
  2 29  1  0  0  0
  3  4  1  0  0  0
  4 10  1  0  0  0
  4  5  2  0  0  0
  5  6  1  0  0  0
  6  7  2  0  0  0
  6 13  1  0  0  0
  7  8  1  0  0  0
  7 30  1  0  0  0
  8  9  1  0  0  0
  8 10  2  0  0  0
  9 31  1  0  0  0
  9 32  1  0  0  0
 10 11  1  0  0  0
 11 12  3  0  0  0
 13 14  1  0  0  0
 13 33  1  0  0  0
 14 15  2  0  0  0
 14 16  1  0  0  0
 16 17  1  0  0  0
 16 34  1  0  0  0
 16 35  1  0  0  0
 17 24  1  0  0  0
 17 18  2  0  0  0
 18 19  1  0  0  0
 18 20  1  0  0  0
 19 36  1  0  0  0
 19 37  1  0  0  0
 19 38  1  0  0  0
 20 21  2  0  0  0
 20 39  1  0  0  0
 21 22  1  0  0  0
 21 40  1  0  0  0
 22 23  1  0  0  0
 22 24  2  0  0  0
 23 41  1  0  0  0
 23 42  1  0  0  0
 23 43  1  0  0  0
 24 44  1  0  0  0
M  END
> <i_m_stars>
0

> <s_m_entry_id>
2992

> <s_m_entry_name>
Jnk1_18635-1.1

> <s_m_Source_Path>
C:\Users\yujiethinkpad\Desktop\05A\JNK1

> <s_m_Source_File>
Jnk1_18635-1.sdf

> <i_m_Source_File_Index>
1

> <s_i_glide_gridfile>
glide-grid_JNK1

> <r_i_docking_score>
-8.14510428022066

> <r_i_glide_ecoul>
-7.39409732818604

> <r_i_glide_einternal>
7.55896711349487

> <r_i_glide_emodel>
-48.6487947566041

> <r_i_glide_energy>
-42.6974191665649

> <r_i_glide_erotb>
0.889885637456498

> <r_i_glide_esite>
0

> <r_i_glide_evdw>
-35.3033218383789

> <r_i_glide_gscore>
-8.14510428022066

> <r_i_glide_hbond>
-0.481529652358124

> <r_i_glide_ligand_efficiency>
-0.339379345009194

> <r_i_glide_ligand_efficiency_ln>
-1.94949720873805

> <r_i_glide_ligand_efficiency_sa>
-0.978939427984399

> <r_i_glide_lipo>
-3.54282993756078

> <r_i_glide_metal>
0

> <r_i_glide_rewards>
-2.1363496366114

> <i_i_glide_confnum>
1

> <i_i_glide_lignum>
6

> <i_i_glide_posenum>
392

> <i_i_glide_rotatable_bonds>
6

> <r_i_glide_eff_state_penalty>
0

> <s_m_job_name>
glide-dock_SP_other_0535

> <r_user_dG.exp>
-7.286071

> <r_m_Molecular_weight>
324.3857

> <r_glide_shape_similarity>
0.866545379161835

> <s_m_subgroup_title>
glide-dock_SP_other_0535_lib1

> <s_m_subgroupid>
glide-dock_SP_other_0535_lib1

> <b_m_subgroup_collapsed>
0

$$$$
