18639-1
                    3D
 Schrodinger Suite 2021-2.
 48 49  0  0  1  0            999 V2000
   24.5693   11.5455   30.8335 C   0  0  0  0  0  0
   23.1888   11.2614   30.2330 C   0  0  0  0  0  0
   22.1916   11.3737   31.2516 O   0  0  0  0  0  0
   21.4511   10.2798   31.6706 C   0  0  0  0  0  0
   21.8208    9.0512   31.2536 N   0  0  0  0  0  0
   21.0868    7.9753   31.6026 C   0  0  0  0  0  0
   19.9395    8.0858   32.4290 C   0  0  0  0  0  0
   19.5486    9.3639   32.8691 C   0  0  0  0  0  0
   18.4146    9.4580   33.6698 N   0  0  0  0  0  0
   20.3111   10.4907   32.4776 C   0  0  0  0  0  0
   19.9509   11.8516   32.8421 C   0  0  0  0  0  0
   19.6680   12.9348   33.1185 N   0  0  0  0  0  0
   21.5474    6.7610   31.0641 N   0  0  0  0  0  0
   20.9991    5.5432   31.0285 C   0  0  0  0  0  0
   20.0112    5.2000   31.6675 O   0  0  0  0  0  0
   21.7218    4.5676   30.0955 C   0  0  0  0  0  0
   23.1495    4.3561   30.5827 C   0  0  0  0  0  0
   24.2230    5.2234   30.2279 C   0  0  0  0  0  0
   23.9756    6.3245   29.4246 O   0  0  0  0  0  0
   24.9860    7.3369   29.3176 C   0  0  0  0  0  0
   25.5124    4.9278   30.7272 C   0  0  0  0  0  0
   25.7341    3.8412   31.6138 C   0  0  0  0  0  0
   27.1298    3.5963   32.0727 N   0  3  0  0  0  0
   28.0398    4.2382   31.5396 O   0  5  0  0  0  0
   27.3296    2.7877   32.9798 O   0  0  0  0  0  0
   24.6257    3.0197   32.0136 C   0  0  0  0  0  0
   23.3573    3.2722   31.4503 C   0  0  0  0  0  0
   24.7778    2.0078   32.9517 O   0  0  0  0  0  0
   23.8313    0.9347   33.0054 C   0  0  0  0  0  0
   25.3140   11.6516   30.0467 H   0  0  0  0  0  0
   24.8834   10.7394   31.4923 H   0  0  0  0  0  0
   24.5577   12.4607   31.4206 H   0  0  0  0  0  0
   22.9643   12.0270   29.4898 H   0  0  0  0  0  0
   23.1872   10.3199   29.6840 H   0  0  0  0  0  0
   19.3568    7.2271   32.7226 H   0  0  0  0  0  0
   18.0004   10.3510   33.9263 H   0  0  0  0  0  0
   17.8903    8.6316   33.9443 H   0  0  0  0  0  0
   22.3836    6.8584   30.5037 H   0  0  0  0  0  0
   21.1833    3.6191   30.0395 H   0  0  0  0  0  0
   21.7349    4.9776   29.0852 H   0  0  0  0  0  0
   24.5497    8.2110   28.8370 H   0  0  0  0  0  0
   25.3584    7.6590   30.2878 H   0  0  0  0  0  0
   25.8150    7.0064   28.6963 H   0  0  0  0  0  0
   26.3498    5.5460   30.4450 H   0  0  0  0  0  0
   22.5034    2.6517   31.6691 H   0  0  0  0  0  0
   24.1607    0.2312   33.7668 H   0  0  0  0  0  0
   22.8074    1.2067   33.2649 H   0  0  0  0  0  0
   23.8364    0.3916   32.0600 H   0  0  0  0  0  0
  1  2  1  0  0  0
  1 30  1  0  0  0
  1 31  1  0  0  0
  1 32  1  0  0  0
  2  3  1  0  0  0
  2 33  1  0  0  0
  2 34  1  0  0  0
  3  4  1  0  0  0
  4 10  1  0  0  0
  4  5  2  0  0  0
  5  6  1  0  0  0
  6  7  2  0  0  0
  6 13  1  0  0  0
  7  8  1  0  0  0
  7 35  1  0  0  0
  8  9  1  0  0  0
  8 10  2  0  0  0
  9 36  1  0  0  0
  9 37  1  0  0  0
 10 11  1  0  0  0
 11 12  3  0  0  0
 13 14  1  0  0  0
 13 38  1  0  0  0
 14 15  2  0  0  0
 14 16  1  0  0  0
 16 17  1  0  0  0
 16 39  1  0  0  0
 16 40  1  0  0  0
 17 27  1  0  0  0
 17 18  2  0  0  0
 18 19  1  0  0  0
 18 21  1  0  0  0
 19 20  1  0  0  0
 20 41  1  0  0  0
 20 42  1  0  0  0
 20 43  1  0  0  0
 21 22  2  0  0  0
 21 44  1  0  0  0
 22 23  1  0  0  0
 22 26  1  0  0  0
 23 24  1  0  0  0
 23 25  2  0  0  0
 26 27  2  0  0  0
 26 28  1  0  0  0
 27 45  1  0  0  0
 28 29  1  0  0  0
 29 46  1  0  0  0
 29 47  1  0  0  0
 29 48  1  0  0  0
M  CHG  2  23   1  24  -1
M  END
> <i_m_stars>
0

> <s_m_entry_id>
2989

> <s_m_entry_name>
Jnk1_18639-1.1

> <s_m_Source_Path>
C:\Users\yujiethinkpad\Desktop\05A\JNK1

> <s_m_Source_File>
Jnk1_18639-1.sdf

> <i_m_Source_File_Index>
1

> <s_i_glide_gridfile>
glide-grid_JNK1

> <r_i_docking_score>
-8.22332461915062

> <r_i_glide_ecoul>
-8.01137733459473

> <r_i_glide_einternal>
7.50931787490845

> <r_i_glide_emodel>
-58.9185651508964

> <r_i_glide_energy>
-48.3680477142334

> <r_i_glide_erotb>
0.608732221122544

> <r_i_glide_esite>
0

> <r_i_glide_evdw>
-40.3566703796387

> <r_i_glide_gscore>
-8.22332461915062

> <r_i_glide_hbond>
-0.491937616924508

> <r_i_glide_ligand_efficiency>
-0.283562917901746

> <r_i_glide_ligand_efficiency_ln>
-1.88293281226523

> <r_i_glide_ligand_efficiency_sa>
-0.87119512283225

> <r_i_glide_lipo>
-3.47362626978377

> <r_i_glide_metal>
0

> <r_i_glide_rewards>
-1.64695283439375

> <i_i_glide_confnum>
11

> <i_i_glide_lignum>
10

> <i_i_glide_posenum>
352

> <i_i_glide_rotatable_bonds>
9

> <r_i_glide_eff_state_penalty>
0

> <s_m_job_name>
glide-dock_SP_other_0535

> <r_user_dG.exp>
-9.740725

> <r_m_Molecular_weight>
401.38203

> <r_glide_shape_similarity>
0.892695903778076

> <s_m_subgroup_title>
glide-dock_SP_other_0535_lib1

> <s_m_subgroupid>
glide-dock_SP_other_0535_lib1

> <b_m_subgroup_collapsed>
0

$$$$
