18634-1
                    3D
 Schrodinger Suite 2021-2.
 46 47  0  0  1  0            999 V2000
   24.5038   10.7532   30.8675 C   0  0  0  0  0  0
   23.1709   11.1625   30.2613 C   0  0  0  0  0  0
   22.1902   11.3200   31.2696 O   0  0  0  0  0  0
   21.4254   10.2470   31.6712 C   0  0  0  0  0  0
   21.7675    9.0119   31.2518 N   0  0  0  0  0  0
   21.0264    7.9469   31.6063 C   0  0  0  0  0  0
   19.8989    8.1047   32.4344 C   0  0  0  0  0  0
   19.5396    9.3778   32.8720 C   0  0  0  0  0  0
   18.4122    9.4749   33.6670 N   0  0  0  0  0  0
   20.3062   10.4832   32.4775 C   0  0  0  0  0  0
   19.9563   11.8377   32.8389 C   0  0  0  0  0  0
   19.6766   12.9185   33.1139 N   0  0  0  0  0  0
   21.4388    6.6885   31.1014 N   0  0  0  0  0  0
   20.9678    5.4503   31.3225 C   0  0  0  0  0  0
   20.0114    5.2286   32.0398 O   0  0  0  0  0  0
   21.6540    4.2438   30.6591 C   0  0  0  0  0  0
   23.1599    4.2536   30.8593 C   0  0  0  0  0  0
   23.8629    3.3035   31.6435 C   0  0  0  0  0  0
   23.2063    2.2299   32.1718 O   0  0  0  0  0  0
   23.8205    1.4912   33.2097 C   0  0  0  0  0  0
   25.2521    3.4443   31.8044 C   0  0  0  0  0  0
   25.9385    4.4808   31.1739 C   0  0  0  0  0  0
   25.2506    5.4007   30.3653 C   0  0  0  0  0  0
   23.8768    5.2568   30.1939 C   0  0  0  0  0  0
   25.8432    6.4500   29.7196 O   0  0  0  0  0  0
   27.2489    6.3979   29.5836 C   0  0  0  0  0  0
   25.2749   10.7055   30.0988 H   0  0  0  0  0  0
   24.4471    9.7697   31.3321 H   0  0  0  0  0  0
   24.8232   11.4659   31.6265 H   0  0  0  0  0  0
   23.2891   12.1297   29.7721 H   0  0  0  0  0  0
   22.8564   10.4731   29.4766 H   0  0  0  0  0  0
   19.2784    7.2808   32.7440 H   0  0  0  0  0  0
   17.9999   10.3640   33.9176 H   0  0  0  0  0  0
   17.8990    8.6491   33.9430 H   0  0  0  0  0  0
   22.2641    6.7320   30.5311 H   0  0  0  0  0  0
   21.2278    3.3177   31.0461 H   0  0  0  0  0  0
   21.4321    4.2562   29.5915 H   0  0  0  0  0  0
   23.0942    0.7960   33.6330 H   0  0  0  0  0  0
   24.6506    0.8943   32.8318 H   0  0  0  0  0  0
   24.1734    2.1346   34.0162 H   0  0  0  0  0  0
   25.8345    2.7471   32.3861 H   0  0  0  0  0  0
   27.0039    4.5423   31.3320 H   0  0  0  0  0  0
   23.3760    5.9483   29.5338 H   0  0  0  0  0  0
   27.5875    7.2742   29.0313 H   0  0  0  0  0  0
   27.7634    6.3988   30.5445 H   0  0  0  0  0  0
   27.5559    5.5160   29.0196 H   0  0  0  0  0  0
  1  2  1  0  0  0
  1 27  1  0  0  0
  1 28  1  0  0  0
  1 29  1  0  0  0
  2  3  1  0  0  0
  2 30  1  0  0  0
  2 31  1  0  0  0
  3  4  1  0  0  0
  4 10  1  0  0  0
  4  5  2  0  0  0
  5  6  1  0  0  0
  6  7  2  0  0  0
  6 13  1  0  0  0
  7  8  1  0  0  0
  7 32  1  0  0  0
  8  9  1  0  0  0
  8 10  2  0  0  0
  9 33  1  0  0  0
  9 34  1  0  0  0
 10 11  1  0  0  0
 11 12  3  0  0  0
 13 14  1  0  0  0
 13 35  1  0  0  0
 14 15  2  0  0  0
 14 16  1  0  0  0
 16 17  1  0  0  0
 16 36  1  0  0  0
 16 37  1  0  0  0
 17 24  1  0  0  0
 17 18  2  0  0  0
 18 19  1  0  0  0
 18 21  1  0  0  0
 19 20  1  0  0  0
 20 38  1  0  0  0
 20 39  1  0  0  0
 20 40  1  0  0  0
 21 22  2  0  0  0
 21 41  1  0  0  0
 22 23  1  0  0  0
 22 42  1  0  0  0
 23 24  2  0  0  0
 23 25  1  0  0  0
 24 43  1  0  0  0
 25 26  1  0  0  0
 26 44  1  0  0  0
 26 45  1  0  0  0
 26 46  1  0  0  0
M  END
> <i_m_stars>
0

> <s_m_entry_id>
3005

> <s_m_entry_name>
Jnk1_18634-1.1

> <s_m_Source_Path>
C:\Users\yujiethinkpad\Desktop\05A\JNK1

> <s_m_Source_File>
Jnk1_18634-1.sdf

> <i_m_Source_File_Index>
1

> <s_i_glide_gridfile>
glide-grid_JNK1

> <r_i_docking_score>
-7.61638293157792

> <r_i_glide_ecoul>
-6.86338138580322

> <r_i_glide_einternal>
6.36489629745483

> <r_i_glide_emodel>
-53.1975977477234

> <r_i_glide_energy>
-39.3114137649536

> <r_i_glide_erotb>
0.753191267593457

> <r_i_glide_esite>
0

> <r_i_glide_evdw>
-32.4480323791504

> <r_i_glide_gscore>
-7.61638293157792

> <r_i_glide_hbond>
-0.450432753314201

> <r_i_glide_ligand_efficiency>
-0.292937805060689

> <r_i_glide_ligand_efficiency_ln>
-1.78868254009029

> <r_i_glide_ligand_efficiency_sa>
-0.867827094837688

> <r_i_glide_lipo>
-3.36402917170876

> <r_i_glide_metal>
0

> <r_i_glide_rewards>
-1.90320344732041

> <i_i_glide_confnum>
18

> <i_i_glide_lignum>
5

> <i_i_glide_posenum>
103

> <i_i_glide_rotatable_bonds>
8

> <r_i_glide_eff_state_penalty>
0

> <s_m_job_name>
glide-dock_SP_other_0535

> <r_user_dG.exp>
-9.993231

> <r_m_Molecular_weight>
356.3845

> <r_glide_shape_similarity>
0.941014051437378

> <s_m_subgroup_title>
glide-dock_SP_other_0535_lib1

> <s_m_subgroupid>
glide-dock_SP_other_0535_lib1

> <b_m_subgroup_collapsed>
0

$$$$
