jmc_30
                    3D
 Schrodinger Suite 2021-2.
 37 39  0  0  1  0            999 V2000
   -2.5792   21.1460  -27.3853 C   0  0  0  0  0  0
   -3.8587   21.0479  -27.9350 C   0  0  0  0  0  0
   -4.2337   21.8129  -29.0521 C   0  0  0  0  0  0
   -3.3286   22.7477  -29.6434 C   0  0  0  0  0  0
   -2.0118   22.7843  -29.0876 C   0  0  0  0  0  0
   -1.6616   22.0147  -27.9704 C   0  0  0  0  0  0
   -0.7233   23.7378  -29.7035 Cl  0  0  0  0  0  0
   -3.7176   23.7602  -30.7203 C   0  0  0  0  0  0
   -2.9082   24.6039  -31.0991 O   0  0  0  0  0  0
   -4.9415   23.7840  -31.2820 N   0  0  0  0  0  0
   -5.5115   24.9936  -31.8073 C   0  0  0  0  0  0
   -6.3559   25.0487  -32.9345 C   0  0  0  0  0  0
   -6.8593   26.3176  -33.3151 C   0  0  0  0  0  0
   -6.5335   27.4925  -32.7094 N   0  0  0  0  0  0
   -5.7262   27.4252  -31.6299 C   0  0  0  0  0  0
   -5.2832   26.1979  -31.1284 C   0  0  0  0  0  0
   -4.9476   28.4303  -31.0173 N   0  0  0  0  0  0
   -4.9244   29.7516  -30.8582 C   0  0  0  0  0  0
   -3.8817   30.2181  -30.4045 O   0  0  0  0  0  0
   -6.0738   30.6457  -31.1048 C   0  0  1  0  0  0
   -6.1328   31.7639  -30.0649 C   0  0  0  0  0  0
   -5.7070   32.0767  -31.4499 C   0  0  1  0  0  0
   -4.2652   32.4334  -31.6596 C   0  0  0  0  0  0
   -5.8103   21.4626  -29.6375 Cl  0  0  0  0  0  0
   -6.9515   30.1359  -31.4900 H   0  0  0  0  0  0
   -6.4057   32.6472  -32.0592 H   0  0  0  0  0  0
   -2.3156   20.5538  -26.5208 H   0  0  0  0  0  0
   -4.5826   20.3739  -27.5006 H   0  0  0  0  0  0
   -0.6647   22.1015  -27.5630 H   0  0  0  0  0  0
   -5.4857   22.9352  -31.3426 H   0  0  0  0  0  0
   -6.5969   24.1437  -33.4728 H   0  0  0  0  0  0
   -7.5528   26.3987  -34.1392 H   0  0  0  0  0  0
   -4.7508   26.1952  -30.1888 H   0  0  0  0  0  0
   -4.1127   28.1814  -30.5049 H   0  0  0  0  0  0
   -7.1517   31.8559  -29.6868 H   0  0  0  0  0  0
   -5.4589   31.5300  -29.2397 H   0  0  0  0  0  0
   -3.1450   32.6867  -31.7997 N   0  0  0  0  0  0
  1  2  1  0  0  0
  1  6  2  0  0  0
  1 27  1  0  0  0
  2  3  2  0  0  0
  2 28  1  0  0  0
  3  4  1  0  0  0
  3 24  1  0  0  0
  4  5  2  0  0  0
  4  8  1  0  0  0
  5  6  1  0  0  0
  5  7  1  0  0  0
  6 29  1  0  0  0
  8  9  2  0  0  0
  8 10  1  0  0  0
 10 11  1  0  0  0
 10 30  1  0  0  0
 11 12  1  0  0  0
 11 16  2  0  0  0
 12 13  2  0  0  0
 12 31  1  0  0  0
 13 14  1  0  0  0
 13 32  1  0  0  0
 14 15  2  0  0  0
 15 16  1  0  0  0
 15 17  1  0  0  0
 16 33  1  0  0  0
 17 18  1  0  0  0
 17 34  1  0  0  0
 18 19  2  0  0  0
 18 20  1  0  0  0
 20 21  1  0  0  0
 20 22  1  0  0  0
 20 25  1  0  0  0
 21 22  1  0  0  0
 21 35  1  0  0  0
 21 36  1  0  0  0
 22 23  1  0  0  0
 22 26  1  0  0  0
 23 37  3  0  0  0
M  END
> <s_m_entry_id>
805

> <s_m_entry_name>
Tyk2_jmc_30.1

> <r_user_dG.exp>
-10.94

> <r_m_Molecular_weight>
375.21679

> <s_m_Source_Path>
C:\Users\yujiethinkpad\Desktop\05A\Tyk2

> <s_m_Source_File>
Tyk2_jmc_30.sdf

> <i_m_Source_File_Index>
1

> <s_m_job_name>
align_ligands_0960

> <i_phase_Input_Structure_Number>
8

> <i_phase_Structure_Number>
8

> <r_phase_Similarity_to_Reference>
0.941284358536142

> <i_phase_Reference_Structure>
16

> <s_phase_Alignment_Method>
snapped core

> <s_phase_Alignment_Reason>


> <s_phase_Core_SMARTS>
A1AA1A(=A)Aa2aaaa(a2)AA(=A)a3aaaaa3

> <s_f3d_frozen_atoms>
21 22 20 18 19 17 15 14 13 12 11 16 10 8 9 4 5 6 1 2 3 35 36 26 25 19 34 32 31 33 30 9 7 29 27 28 24

> <s_fepmapper_entryid>
3

> <i_fepmapper_bias>
0

> <i_fepmapper_affinity>
1

> <r_fepmapper_exp_dG>
-10.94

> <i_fepmapper_unit>
1

> <s_m_subgroup_title>
align_ligands_0960

> <s_m_subgroupid>
align_ligands_0960

> <b_m_subgroup_collapsed>
0

$$$$
