28
                    3D
 Schrodinger Suite 2021-2.
 41 43  0  0  1  0            999 V2000
    3.0246  -47.2604    6.9944 O   0  0  0  0  0  0
    2.9960  -48.5042    6.8710 C   0  0  0  0  0  0
    4.0304  -49.1832    7.0447 O   0  5  0  0  0  0
    1.7173  -49.1783    6.5232 C   0  0  0  0  0  0
   -0.1074  -50.8954    6.4429 C   0  0  0  0  0  0
   -1.0177  -51.9619    6.5205 C   0  0  0  0  0  0
   -2.3600  -51.7826    6.1407 C   0  0  0  0  0  0
   -2.7782  -50.5305    5.6661 C   0  0  0  0  0  0
   -1.8605  -49.4770    5.5713 C   0  0  0  0  0  0
   -0.5101  -49.6375    5.9492 C   0  0  0  0  0  0
    0.5664  -48.6906    5.9585 C   0  0  0  0  0  0
    0.3137  -47.3112    5.5435 C   0  0  0  0  0  0
   -0.2396  -46.7215    6.7936 C   0  0  0  0  0  0
   -0.6961  -45.3559    6.6884 C   0  0  0  0  0  0
   -1.9385  -45.1775    6.0286 O   0  0  0  0  0  0
   -3.0375  -45.0386    6.8285 C   0  0  0  0  0  0
   -3.2095  -45.7791    7.9933 C   0  0  0  0  0  0
   -4.4626  -45.8627    8.6014 C   0  0  0  0  0  0
   -5.5067  -45.0317    8.1774 C   0  0  0  0  0  0
   -5.3575  -44.2723    7.0078 C   0  0  0  0  0  0
   -4.1066  -44.2675    6.3653 C   0  0  0  0  0  0
   -0.6958  -52.9232    6.8919 H   0  0  0  0  0  0
   -3.0611  -52.6007    6.2201 H   0  0  0  0  0  0
   -3.8047  -50.3788    5.3637 H   0  0  0  0  0  0
   -2.2020  -48.5110    5.2294 H   0  0  0  0  0  0
   -0.3408  -47.2828    4.6719 H   0  0  0  0  0  0
    1.2510  -46.8643    5.2091 H   0  0  0  0  0  0
    0.4426  -46.9056    7.6217 H   0  0  0  0  0  0
   -1.1076  -47.3098    7.0840 H   0  0  0  0  0  0
    0.0815  -44.7852    6.1768 H   0  0  0  0  0  0
   -0.7698  -44.9725    7.7021 H   0  0  0  0  0  0
   -4.0309  -43.6418    5.4914 H   0  0  0  0  0  0
    1.5846  -50.8595    6.9155 N   0  0  0  0  0  0
    2.3693  -51.3534    7.3116 H   0  0  0  0  0  0
   -6.1949  -43.7246    6.6049 H   0  0  0  0  0  0
   -6.4100  -44.9475    8.7638 H   0  0  0  0  0  0
   -4.6261  -46.5626    9.4080 H   0  0  0  0  0  0
   -2.0844  -46.5843    8.5866 C   0  0  0  0  0  0
   -2.3432  -47.6434    8.5930 H   0  0  0  0  0  0
   -1.1414  -46.4615    8.0545 H   0  0  0  0  0  0
   -1.9138  -46.2867    9.6216 H   0  0  0  0  0  0
  1  2  2  0  0  0
  2  3  1  0  0  0
  2  4  1  0  0  0
  4 11  2  0  0  0
  4 33  1  0  0  0
  5  6  1  0  0  0
  5 10  2  0  0  0
  5 33  1  0  0  0
  6  7  2  0  0  0
  6 22  1  0  0  0
  7  8  1  0  0  0
  7 23  1  0  0  0
  8  9  2  0  0  0
  8 24  1  0  0  0
  9 10  1  0  0  0
  9 25  1  0  0  0
 10 11  1  0  0  0
 11 12  1  0  0  0
 12 26  1  0  0  0
 12 27  1  0  0  0
 12 13  1  0  0  0
 13 14  1  0  0  0
 13 28  1  0  0  0
 13 29  1  0  0  0
 14 15  1  0  0  0
 14 30  1  0  0  0
 14 31  1  0  0  0
 15 16  1  0  0  0
 16 17  1  0  0  0
 16 21  2  0  0  0
 17 18  2  0  0  0
 17 38  1  0  0  0
 18 19  1  0  0  0
 18 37  1  0  0  0
 19 20  2  0  0  0
 19 36  1  0  0  0
 20 21  1  0  0  0
 20 35  1  0  0  0
 21 32  1  0  0  0
 33 34  1  0  0  0
 38 39  1  0  0  0
 38 40  1  0  0  0
 38 41  1  0  0  0
M  CHG  1   3  -1
M  END
> <s_m_entry_id>
355

> <s_m_entry_name>
MCL1_28.1

> <r_m_Molecular_weight>
308.36021

> <s_m_Source_Path>
C:\Users\yujiethinkpad\Desktop\05A\MCL1\original

> <s_m_Source_File>
MCL1_28.sdf

> <r_user_dG.exp>
-6.62149034253618

> <s_fepmapper_entryid>
14

> <i_fepmapper_bias>
0

> <i_fepmapper_affinity>
1

> <r_fepmapper_exp_dG>
-6.62149034254

> <i_fepmapper_unit>
1

> <i_m_Source_File_Index>
1

> <s_m_job_name>
align_ligands_3

> <s_i_glide_gridfile>
glide-grid_MCL1

> <i_i_glide_lignum>
12

> <i_i_glide_rotatable_bonds>
6

> <r_i_docking_score>
-7.47124597248074

> <r_i_glide_ligand_efficiency>
-0.324836781412206

> <r_i_glide_ligand_efficiency_sa>
-0.923792595533919

> <r_i_glide_ligand_efficiency_ln>
-1.80661502165881

> <r_i_glide_gscore>
-7.47124597248074

> <r_i_glide_lipo>
-4.41362463386077

> <r_i_glide_hbond>
-0.2

> <r_i_glide_metal>
0

> <r_i_glide_rewards>
-1.97096169262753

> <r_i_glide_evdw>
-28.868278503418

> <r_i_glide_ecoul>
-2.67770075798035

> <r_i_glide_erotb>
0.972874471200538

> <r_i_glide_esite>
-0.0144650783250334

> <r_i_glide_emodel>
-40.1707871953964

> <r_i_glide_energy>
-31.5459792613983

> <r_i_glide_einternal>
2.77263832092285

> <i_i_glide_confnum>
32

> <i_i_glide_posenum>
7

> <r_i_glide_eff_state_penalty>
0

> <r_glide_shape_similarity>
0.87121993303299

> <i_phase_Input_Structure_Number>
36

> <i_phase_Structure_Number>
36

> <r_phase_Similarity_to_Reference>
0.878357684138886

> <i_phase_Reference_Structure>
1

> <s_phase_Alignment_Method>
snapped core

> <s_phase_Alignment_Reason>


> <s_phase_Core_SMARTS>
a1aaaaa1AAAAa(aa2)a(a23)aaaa3

> <s_f3d_frozen_atoms>
21 20 19 18 17 16 15 14 13 12 11 4 33 10 5 9 8 7 6 32 35 36 37 30 31 28 29 26 27 34 25 24 23 22

> <s_m_subgroup_title>
align_ligands_3->glide-dock_SP_redock_05676_lib1

> <s_m_subgroupid>
align_ligands_3->glide-dock_SP_redock_05676_lib11

> <b_m_subgroup_collapsed>
0

$$$$
