32
                    3D
 Schrodinger Suite 2021-2.
 41 43  0  0  1  0            999 V2000
    3.0246  -47.2604    6.9944 O   0  0  0  0  0  0
    2.9960  -48.5042    6.8710 C   0  0  0  0  0  0
    4.0304  -49.1832    7.0447 O   0  5  0  0  0  0
    1.7173  -49.1783    6.5232 C   0  0  0  0  0  0
   -0.1074  -50.8954    6.4429 C   0  0  0  0  0  0
   -1.0177  -51.9619    6.5205 C   0  0  0  0  0  0
   -2.3600  -51.7826    6.1407 C   0  0  0  0  0  0
   -2.7782  -50.5305    5.6661 C   0  0  0  0  0  0
   -1.8605  -49.4770    5.5713 C   0  0  0  0  0  0
   -0.5101  -49.6375    5.9492 C   0  0  0  0  0  0
    0.5664  -48.6906    5.9585 C   0  0  0  0  0  0
    0.3137  -47.3112    5.5435 C   0  0  0  0  0  0
   -0.2396  -46.7215    6.7936 C   0  0  0  0  0  0
   -0.6961  -45.3559    6.6884 C   0  0  0  0  0  0
   -1.9385  -45.1775    6.0286 O   0  0  0  0  0  0
   -3.0375  -45.0386    6.8285 C   0  0  0  0  0  0
   -4.1066  -44.2675    6.3653 C   0  0  0  0  0  0
   -5.3575  -44.2723    7.0078 C   0  0  0  0  0  0
   -5.5067  -45.0317    8.1774 C   0  0  0  0  0  0
   -4.4626  -45.8627    8.6014 C   0  0  0  0  0  0
   -3.2095  -45.7791    7.9933 C   0  0  0  0  0  0
   -0.6957  -52.9218    6.8961 H   0  0  0  0  0  0
   -3.0633  -52.5991    6.2194 H   0  0  0  0  0  0
   -3.8033  -50.3719    5.3661 H   0  0  0  0  0  0
   -2.2007  -48.5111    5.2319 H   0  0  0  0  0  0
   -0.3467  -47.2953    4.6759 H   0  0  0  0  0  0
    1.2479  -46.8663    5.2023 H   0  0  0  0  0  0
    0.5333  -46.7424    7.5552 H   0  0  0  0  0  0
   -1.0536  -47.3353    7.1782 H   0  0  0  0  0  0
    0.0439  -44.7676    6.1443 H   0  0  0  0  0  0
   -0.8531  -44.9158    7.6688 H   0  0  0  0  0  0
   -3.9800  -43.6568    5.4883 H   0  0  0  0  0  0
   -2.4015  -46.3447    8.4352 H   0  0  0  0  0  0
    1.5846  -50.8595    6.9155 N   0  0  0  0  0  0
    2.3697  -51.3560    7.3076 H   0  0  0  0  0  0
   -4.6246  -46.5855    9.3873 H   0  0  0  0  0  0
   -6.1866  -43.7281    6.5809 H   0  0  0  0  0  0
   -6.7877  -45.0152    8.9648 C   0  0  0  0  0  0
   -6.5661  -45.1400   10.0241 H   0  0  0  0  0  0
   -7.4223  -45.8459    8.6636 H   0  0  0  0  0  0
   -7.3665  -44.1002    8.8328 H   0  0  0  0  0  0
  1  2  2  0  0  0
  2  3  1  0  0  0
  2  4  1  0  0  0
  4 11  2  0  0  0
  4 34  1  0  0  0
  5  6  1  0  0  0
  5 10  2  0  0  0
  5 34  1  0  0  0
  6  7  2  0  0  0
  6 22  1  0  0  0
  7  8  1  0  0  0
  7 23  1  0  0  0
  8  9  2  0  0  0
  8 24  1  0  0  0
  9 10  1  0  0  0
  9 25  1  0  0  0
 10 11  1  0  0  0
 11 12  1  0  0  0
 12 26  1  0  0  0
 12 27  1  0  0  0
 12 13  1  0  0  0
 13 14  1  0  0  0
 13 28  1  0  0  0
 13 29  1  0  0  0
 14 15  1  0  0  0
 14 30  1  0  0  0
 14 31  1  0  0  0
 15 16  1  0  0  0
 16 17  1  0  0  0
 16 21  2  0  0  0
 17 18  2  0  0  0
 17 32  1  0  0  0
 18 19  1  0  0  0
 18 37  1  0  0  0
 19 20  2  0  0  0
 19 38  1  0  0  0
 20 21  1  0  0  0
 20 36  1  0  0  0
 21 33  1  0  0  0
 34 35  1  0  0  0
 38 39  1  0  0  0
 38 40  1  0  0  0
 38 41  1  0  0  0
M  CHG  1   3  -1
M  END
> <s_m_entry_id>
358

> <s_m_entry_name>
MCL1_32.1

> <r_m_Molecular_weight>
308.36021

> <s_m_Source_Path>
C:\Users\yujiethinkpad\Desktop\05A\MCL1\original

> <s_m_Source_File>
MCL1_32.sdf

> <r_user_dG.exp>
-6.58301699393044

> <s_fepmapper_entryid>
10

> <i_fepmapper_bias>
0

> <i_fepmapper_affinity>
1

> <r_fepmapper_exp_dG>
-6.58301699393

> <i_fepmapper_unit>
1

> <i_m_Source_File_Index>
1

> <s_m_job_name>
align_ligands_3

> <s_i_glide_gridfile>
glide-grid_MCL1

> <i_i_glide_lignum>
16

> <i_i_glide_rotatable_bonds>
6

> <r_i_docking_score>
-7.32355648737041

> <r_i_glide_ligand_efficiency>
-0.318415499450887

> <r_i_glide_ligand_efficiency_sa>
-0.905531323814893

> <r_i_glide_ligand_efficiency_ln>
-1.77090236498492

> <r_i_glide_gscore>
-7.32355648737041

> <r_i_glide_lipo>
-4.2891949200267

> <r_i_glide_hbond>
-0.2

> <r_i_glide_metal>
0

> <r_i_glide_rewards>
-1.99380441484648

> <r_i_glide_evdw>
-26.8568706512451

> <r_i_glide_ecoul>
-3.05557513237

> <r_i_glide_erotb>
0.972874471200538

> <r_i_glide_esite>
-0.0122518212800128

> <r_i_glide_emodel>
-36.1221172323919

> <r_i_glide_energy>
-29.9124457836151

> <r_i_glide_einternal>
3.51422667503357

> <i_i_glide_confnum>
133

> <i_i_glide_posenum>
266

> <r_i_glide_eff_state_penalty>
0

> <r_glide_shape_similarity>
0.880005359649658

> <i_phase_Input_Structure_Number>
39

> <i_phase_Structure_Number>
39

> <r_phase_Similarity_to_Reference>
0.87519578720344

> <i_phase_Reference_Structure>
1

> <s_phase_Alignment_Method>
snapped core

> <s_phase_Alignment_Reason>


> <s_phase_Core_SMARTS>
a1aaaaa1AAAAa(aa2)a(a23)aaaa3

> <s_f3d_frozen_atoms>
17 18 19 20 21 16 15 14 13 12 11 4 34 10 5 9 8 7 6 32 37 36 33 30 31 28 29 26 27 35 25 24 23 22

> <s_m_subgroup_title>
align_ligands_3->glide-dock_SP_redock_05676_lib1

> <s_m_subgroupid>
align_ligands_3->glide-dock_SP_redock_05676_lib11

> <b_m_subgroup_collapsed>
0

$$$$
