39
                    3D
 Schrodinger Suite 2021-2.
 48 51  0  0  1  0            999 V2000
    3.0246  -47.2604    6.9944 O   0  0  0  0  0  0
    2.9960  -48.5042    6.8710 C   0  0  0  0  0  0
    4.0304  -49.1832    7.0447 O   0  5  0  0  0  0
    1.7173  -49.1783    6.5232 C   0  0  0  0  0  0
   -0.1074  -50.8954    6.4429 C   0  0  0  0  0  0
   -1.0177  -51.9619    6.5205 C   0  0  0  0  0  0
   -2.3600  -51.7826    6.1407 C   0  0  0  0  0  0
   -2.7782  -50.5305    5.6661 C   0  0  0  0  0  0
   -1.8605  -49.4770    5.5713 C   0  0  0  0  0  0
   -0.5101  -49.6375    5.9492 C   0  0  0  0  0  0
    0.5664  -48.6906    5.9585 C   0  0  0  0  0  0
    0.3137  -47.3112    5.5435 C   0  0  0  0  0  0
   -0.2396  -46.7215    6.7936 C   0  0  0  0  0  0
   -0.6961  -45.3559    6.6884 C   0  0  0  0  0  0
   -1.9385  -45.1775    6.0286 O   0  0  0  0  0  0
   -3.0375  -45.0386    6.8285 C   0  0  0  0  0  0
   -4.1066  -44.2675    6.3653 C   0  0  0  0  0  0
   -5.3575  -44.2723    7.0078 C   0  0  0  0  0  0
   -5.5067  -45.0317    8.1774 C   0  0  0  0  0  0
   -4.4626  -45.8627    8.6014 C   0  0  0  0  0  0
   -3.2095  -45.7791    7.9933 C   0  0  0  0  0  0
   -0.6951  -52.9190    6.9022 H   0  0  0  0  0  0
   -3.0667  -52.5959    6.2222 H   0  0  0  0  0  0
   -3.8015  -50.3825    5.3572 H   0  0  0  0  0  0
   -2.1952  -48.5227    5.2327 H   0  0  0  0  0  0
    1.2379  -46.8611    5.1852 H   0  0  0  0  0  0
   -0.3117  -47.2778    4.6636 H   0  0  0  0  0  0
   -1.0849  -47.2945    7.1500 H   0  0  0  0  0  0
    0.5114  -46.7389    7.5820 H   0  0  0  0  0  0
   -0.7123  -44.8301    7.6385 H   0  0  0  0  0  0
   -0.0032  -44.8004    6.0685 H   0  0  0  0  0  0
   -4.0163  -43.8267    5.3995 H   0  0  0  0  0  0
   -2.4068  -46.3465    8.4296 H   0  0  0  0  0  0
    1.5846  -50.8595    6.9155 N   0  0  0  0  0  0
    2.3742  -51.3609    7.3092 H   0  0  0  0  0  0
   -4.6679  -46.6775    9.2771 H   0  0  0  0  0  0
   -6.1914  -43.7505    6.5674 H   0  0  0  0  0  0
   -9.3557  -45.3304   10.0244 C   0  0  0  0  0  0
   -8.5364  -46.4499    9.9406 C   0  0  0  0  0  0
   -7.2864  -46.3529    9.3408 C   0  0  0  0  0  0
   -6.8558  -45.1364    8.8248 C   0  0  0  0  0  0
   -7.6751  -44.0169    8.9086 C   0  0  0  0  0  0
   -8.9251  -44.1139    9.5084 C   0  0  0  0  0  0
  -10.3289  -45.4060   10.4914 H   0  0  0  0  0  0
   -8.8717  -47.3971   10.3423 H   0  0  0  0  0  0
   -6.6485  -47.2245    9.2755 H   0  0  0  0  0  0
   -7.3399  -43.0697    8.5069 H   0  0  0  0  0  0
   -9.5630  -43.2423    9.5737 H   0  0  0  0  0  0
  1  2  2  0  0  0
  2  3  1  0  0  0
  2  4  1  0  0  0
  4 11  2  0  0  0
  4 34  1  0  0  0
  5  6  1  0  0  0
  5 10  2  0  0  0
  5 34  1  0  0  0
  6  7  2  0  0  0
  6 22  1  0  0  0
  7  8  1  0  0  0
  7 23  1  0  0  0
  8  9  2  0  0  0
  8 24  1  0  0  0
  9 10  1  0  0  0
  9 25  1  0  0  0
 10 11  1  0  0  0
 11 12  1  0  0  0
 12 26  1  0  0  0
 12 27  1  0  0  0
 12 13  1  0  0  0
 13 14  1  0  0  0
 13 28  1  0  0  0
 13 29  1  0  0  0
 14 15  1  0  0  0
 14 30  1  0  0  0
 14 31  1  0  0  0
 15 16  1  0  0  0
 16 17  1  0  0  0
 16 21  2  0  0  0
 17 18  2  0  0  0
 17 32  1  0  0  0
 18 19  1  0  0  0
 18 37  1  0  0  0
 19 20  2  0  0  0
 19 41  1  0  0  0
 20 21  1  0  0  0
 20 36  1  0  0  0
 21 33  1  0  0  0
 34 35  1  0  0  0
 38 39  2  0  0  0
 38 43  1  0  0  0
 38 44  1  0  0  0
 39 40  1  0  0  0
 39 45  1  0  0  0
 40 41  2  0  0  0
 40 46  1  0  0  0
 41 42  1  0  0  0
 42 43  2  0  0  0
 42 47  1  0  0  0
 43 48  1  0  0  0
M  CHG  1   3  -1
M  END
> <s_m_entry_id>
340

> <s_m_entry_name>
MCL1_39.1

> <r_m_Molecular_weight>
370.4319

> <s_m_Source_Path>
C:\Users\yujiethinkpad\Desktop\05A\MCL1\original

> <s_m_Source_File>
MCL1_39.sdf

> <r_user_dG.exp>
-7.02680029426089

> <s_fepmapper_entryid>
16

> <i_fepmapper_bias>
0

> <i_fepmapper_affinity>
1

> <r_fepmapper_exp_dG>
-7.02680029426

> <i_fepmapper_unit>
1

> <i_m_Source_File_Index>
1

> <s_m_job_name>
align_ligands_3

> <s_i_glide_gridfile>
glide-grid_MCL1

> <i_i_glide_lignum>
23

> <i_i_glide_rotatable_bonds>
7

> <r_i_docking_score>
-8.34460702765342

> <r_i_glide_ligand_efficiency>
-0.298021679559051

> <r_i_glide_ligand_efficiency_sa>
-0.904969344523695

> <r_i_glide_ligand_efficiency_ln>
-1.92618031029102

> <r_i_glide_gscore>
-8.34460702765342

> <r_i_glide_lipo>
-5.93220582698477

> <r_i_glide_hbond>
-0.0717242383545837

> <r_i_glide_metal>
0

> <r_i_glide_rewards>
-1.78289187441325

> <r_i_glide_evdw>
-29.9253063201904

> <r_i_glide_ecoul>
0.634581863880157

> <r_i_glide_erotb>
0.843599049903382

> <r_i_glide_esite>
-0.000306101376694114

> <r_i_glide_emodel>
-15.9308863850451

> <r_i_glide_energy>
-29.2907244563103

> <r_i_glide_einternal>
9.56832027435303

> <i_i_glide_confnum>
100

> <i_i_glide_posenum>
288

> <r_i_glide_eff_state_penalty>
0

> <r_glide_shape_similarity>
0.690187573432922

> <i_phase_Input_Structure_Number>
21

> <i_phase_Structure_Number>
21

> <r_phase_Similarity_to_Reference>
0.759117061070277

> <i_phase_Reference_Structure>
1

> <s_phase_Alignment_Method>
snapped core

> <s_phase_Alignment_Reason>


> <s_phase_Core_SMARTS>
a1aaaaa1AAAAa(aa2)a(a23)aaaa3

> <s_f3d_frozen_atoms>
17 18 19 20 21 16 15 14 13 12 11 4 34 10 5 9 8 7 6 32 37 36 33 30 31 28 29 26 27 35 25 24 23 22

> <s_m_subgroup_title>
align_ligands_3->glide-dock_SP_redock_05676_lib1

> <s_m_subgroupid>
align_ligands_3->glide-dock_SP_redock_05676_lib11

> <b_m_subgroup_collapsed>
0

$$$$
