42
                    3D
 Schrodinger Suite 2021-2.
 44 47  0  0  1  0            999 V2000
    3.0246  -47.2604    6.9944 O   0  0  0  0  0  0
    2.9960  -48.5042    6.8710 C   0  0  0  0  0  0
    4.0304  -49.1832    7.0447 O   0  5  0  0  0  0
    1.7173  -49.1783    6.5232 C   0  0  0  0  0  0
   -0.1074  -50.8954    6.4429 C   0  0  0  0  0  0
   -1.0177  -51.9619    6.5205 C   0  0  0  0  0  0
   -2.3600  -51.7826    6.1407 C   0  0  0  0  0  0
   -2.7782  -50.5305    5.6661 C   0  0  0  0  0  0
   -1.8605  -49.4770    5.5713 C   0  0  0  0  0  0
   -0.5101  -49.6375    5.9492 C   0  0  0  0  0  0
    0.5664  -48.6906    5.9585 C   0  0  0  0  0  0
    0.3137  -47.3112    5.5435 C   0  0  0  0  0  0
   -0.2396  -46.7215    6.7936 C   0  0  0  0  0  0
   -0.6961  -45.3559    6.6884 C   0  0  0  0  0  0
   -1.9385  -45.1775    6.0286 O   0  0  0  0  0  0
   -3.0375  -45.0386    6.8285 C   0  0  0  0  0  0
   -5.5067  -45.0317    8.1774 C   0  0  0  0  0  0
   -4.4626  -45.8627    8.6014 C   0  0  0  0  0  0
   -3.2095  -45.7791    7.9933 C   0  0  0  0  0  0
   -0.6977  -52.9280    6.8877 H   0  0  0  0  0  0
   -3.0628  -52.5987    6.2173 H   0  0  0  0  0  0
   -3.8064  -50.3853    5.3659 H   0  0  0  0  0  0
   -2.1960  -48.5158    5.2063 H   0  0  0  0  0  0
    1.2509  -46.8646    5.1985 H   0  0  0  0  0  0
   -0.3547  -47.2993    4.6812 H   0  0  0  0  0  0
   -1.0945  -47.3291    7.0869 H   0  0  0  0  0  0
    0.4557  -46.8542    7.6208 H   0  0  0  0  0  0
   -0.8624  -45.0233    7.6973 H   0  0  0  0  0  0
    0.0901  -44.7352    6.2383 H   0  0  0  0  0  0
   -2.3958  -46.2998    8.4710 H   0  0  0  0  0  0
   -5.3575  -44.2723    7.0078 C   0  0  0  0  0  0
   -4.1066  -44.2675    6.3653 C   0  0  0  0  0  0
   -3.9541  -43.4311    5.2098 C   0  0  0  0  0  0
   -5.0920  -42.8107    4.6486 C   0  0  0  0  0  0
   -6.3589  -42.9561    5.2640 C   0  0  0  0  0  0
   -6.5026  -43.6764    6.4302 C   0  0  0  0  0  0
   -3.0075  -43.4095    4.6860 H   0  0  0  0  0  0
   -4.9923  -42.2427    3.7309 H   0  0  0  0  0  0
   -7.2197  -42.4584    4.8385 H   0  0  0  0  0  0
   -7.4821  -43.8371    6.8575 H   0  0  0  0  0  0
   -4.6311  -46.5711    9.3880 H   0  0  0  0  0  0
   -6.4468  -45.0460    8.7091 H   0  0  0  0  0  0
    1.5846  -50.8595    6.9155 N   0  0  0  0  0  0
    2.3784  -51.3610    7.3091 H   0  0  0  0  0  0
  1  2  2  0  0  0
  2  3  1  0  0  0
  2  4  1  0  0  0
  4 11  2  0  0  0
  4 43  1  0  0  0
  5  6  1  0  0  0
  5 10  2  0  0  0
  5 43  1  0  0  0
  6  7  2  0  0  0
  6 20  1  0  0  0
  7  8  1  0  0  0
  7 21  1  0  0  0
  8  9  2  0  0  0
  8 22  1  0  0  0
  9 10  1  0  0  0
  9 23  1  0  0  0
 10 11  1  0  0  0
 11 12  1  0  0  0
 12 24  1  0  0  0
 12 25  1  0  0  0
 12 13  1  0  0  0
 13 14  1  0  0  0
 13 26  1  0  0  0
 13 27  1  0  0  0
 14 15  1  0  0  0
 14 28  1  0  0  0
 14 29  1  0  0  0
 15 16  1  0  0  0
 16 19  2  0  0  0
 16 32  1  0  0  0
 17 18  2  0  0  0
 17 31  1  0  0  0
 17 42  1  0  0  0
 18 19  1  0  0  0
 18 41  1  0  0  0
 19 30  1  0  0  0
 31 32  2  0  0  0
 31 36  1  0  0  0
 32 33  1  0  0  0
 33 34  2  0  0  0
 33 37  1  0  0  0
 34 35  1  0  0  0
 34 38  1  0  0  0
 35 36  2  0  0  0
 35 39  1  0  0  0
 36 40  1  0  0  0
 43 44  1  0  0  0
M  CHG  1   3  -1
M  END
> <s_m_entry_id>
324

> <s_m_entry_name>
MCL1_42.1

> <r_m_Molecular_weight>
344.39366

> <s_m_Source_Path>
C:\Users\yujiethinkpad\Desktop\05A\MCL1\original

> <s_m_Source_File>
MCL1_42.sdf

> <r_user_dG.exp>
-8.89674735927531

> <s_fepmapper_entryid>
40

> <i_fepmapper_bias>
0

> <i_fepmapper_affinity>
1

> <r_fepmapper_exp_dG>
-8.89674735928

> <i_fepmapper_unit>
1

> <i_m_Source_File_Index>
1

> <s_m_job_name>
align_ligands_3

> <s_i_glide_gridfile>
glide-grid_MCL1

> <i_i_glide_lignum>
26

> <i_i_glide_rotatable_bonds>
6

> <r_i_docking_score>
-8.86506211158716

> <r_i_glide_ligand_efficiency>
-0.340963927368737

> <r_i_glide_ligand_efficiency_sa>
-1.01010429320161

> <r_i_glide_ligand_efficiency_ln>
-2.08193074826488

> <r_i_glide_gscore>
-8.86506211158716

> <r_i_glide_lipo>
-5.38787789465409

> <r_i_glide_hbond>
-0.2

> <r_i_glide_metal>
0

> <r_i_glide_rewards>
-1.9610235

> <r_i_glide_evdw>
-29.8472690582275

> <r_i_glide_ecoul>
-2.95975542068481

> <r_i_glide_erotb>
0.640363311436548

> <r_i_glide_esite>
-0.020197262355522

> <r_i_glide_emodel>
-44.9032297984055

> <r_i_glide_energy>
-32.8070244789124

> <r_i_glide_einternal>
3.82033109664917

> <i_i_glide_confnum>
72

> <i_i_glide_posenum>
98

> <r_i_glide_eff_state_penalty>
0

> <r_glide_shape_similarity>
0.87992000579834

> <i_phase_Input_Structure_Number>
5

> <i_phase_Structure_Number>
5

> <r_phase_Similarity_to_Reference>
0.854072568729332

> <i_phase_Reference_Structure>
1

> <s_phase_Alignment_Method>
snapped core

> <s_phase_Alignment_Reason>


> <s_phase_Core_SMARTS>
a1aaaaa1AAAAa(aa2)a(a23)aaaa3

> <s_f3d_frozen_atoms>
32 31 17 18 19 16 15 14 13 12 11 4 43 10 5 9 8 7 6 42 41 30 28 29 26 27 24 25 44 23 22 21 20

> <s_m_subgroup_title>
align_ligands_3->glide-dock_SP_redock_05676_lib1

> <s_m_subgroupid>
align_ligands_3->glide-dock_SP_redock_05676_lib11

> <b_m_subgroup_collapsed>
0

$$$$
