48
                    3D
 Schrodinger Suite 2021-2.
 42 45  0  0  1  0            999 V2000
    3.0246  -47.2604    6.9944 O   0  0  0  0  0  0
    2.9960  -48.5042    6.8710 C   0  0  0  0  0  0
    4.0304  -49.1832    7.0447 O   0  5  0  0  0  0
    1.7173  -49.1783    6.5232 C   0  0  0  0  0  0
   -0.1074  -50.8954    6.4429 C   0  0  0  0  0  0
   -1.0177  -51.9619    6.5205 C   0  0  0  0  0  0
   -2.3600  -51.7826    6.1407 C   0  0  0  0  0  0
   -2.7782  -50.5305    5.6661 C   0  0  0  0  0  0
   -1.8605  -49.4770    5.5713 C   0  0  0  0  0  0
   -0.5101  -49.6375    5.9492 C   0  0  0  0  0  0
    0.5664  -48.6906    5.9585 C   0  0  0  0  0  0
    0.3137  -47.3112    5.5435 C   0  0  0  0  0  0
   -0.2396  -46.7215    6.7936 C   0  0  0  0  0  0
   -0.6961  -45.3559    6.6884 C   0  0  0  0  0  0
   -1.9385  -45.1775    6.0286 O   0  0  0  0  0  0
   -3.0375  -45.0386    6.8285 C   0  0  0  0  0  0
   -5.5067  -45.0317    8.1774 C   0  0  0  0  0  0
   -5.3575  -44.2723    7.0078 C   0  0  0  0  0  0
   -4.1066  -44.2675    6.3653 C   0  0  0  0  0  0
   -0.6982  -52.9261    6.8988 H   0  0  0  0  0  0
   -3.0682  -52.5918    6.2171 H   0  0  0  0  0  0
   -3.8012  -50.3804    5.3781 H   0  0  0  0  0  0
   -2.1904  -48.5363    5.1683 H   0  0  0  0  0  0
    1.2340  -46.8625    5.1648 H   0  0  0  0  0  0
   -0.3664  -47.3025    4.6845 H   0  0  0  0  0  0
   -0.9365  -47.3450    7.3494 H   0  0  0  0  0  0
    0.6738  -46.7431    7.3340 H   0  0  0  0  0  0
   -0.7950  -44.9180    7.6837 H   0  0  0  0  0  0
    0.1020  -44.7912    6.2232 H   0  0  0  0  0  0
   -3.9900  -43.6753    5.4709 H   0  0  0  0  0  0
   -6.1971  -43.7326    6.5907 H   0  0  0  0  0  0
   -6.3961  -44.9209    8.7763 H   0  0  0  0  0  0
    1.5846  -50.8595    6.9155 N   0  0  0  0  0  0
    2.3574  -51.3500    7.3649 H   0  0  0  0  0  0
   -3.0443  -47.1395    9.8443 C   0  0  0  0  0  0
   -4.3714  -46.7656    9.6481 N   0  0  0  0  0  0
   -4.4626  -45.8627    8.6014 C   0  0  0  0  0  0
   -3.2095  -45.7791    7.9933 C   0  0  0  0  0  0
   -2.3315  -46.5152    8.8815 C   0  0  0  0  0  0
   -5.1314  -47.0007   10.2825 H   0  0  0  0  0  0
   -1.2563  -46.4482    8.8006 H   0  0  0  0  0  0
   -2.7799  -47.8974   10.5720 H   0  0  0  0  0  0
  1  2  2  0  0  0
  2  3  1  0  0  0
  2  4  1  0  0  0
  4 11  2  0  0  0
  4 33  1  0  0  0
  5  6  1  0  0  0
  5 10  2  0  0  0
  5 33  1  0  0  0
  6  7  2  0  0  0
  6 20  1  0  0  0
  7  8  1  0  0  0
  7 21  1  0  0  0
  8  9  2  0  0  0
  8 22  1  0  0  0
  9 10  1  0  0  0
  9 23  1  0  0  0
 10 11  1  0  0  0
 11 12  1  0  0  0
 12 24  1  0  0  0
 12 25  1  0  0  0
 12 13  1  0  0  0
 13 14  1  0  0  0
 13 26  1  0  0  0
 13 27  1  0  0  0
 14 15  1  0  0  0
 14 28  1  0  0  0
 14 29  1  0  0  0
 15 16  1  0  0  0
 16 19  2  0  0  0
 16 38  1  0  0  0
 17 18  2  0  0  0
 17 32  1  0  0  0
 17 37  1  0  0  0
 18 19  1  0  0  0
 18 31  1  0  0  0
 19 30  1  0  0  0
 33 34  1  0  0  0
 35 36  1  0  0  0
 35 39  2  0  0  0
 35 42  1  0  0  0
 36 37  1  0  0  0
 36 40  1  0  0  0
 37 38  2  0  0  0
 38 39  1  0  0  0
 39 41  1  0  0  0
M  CHG  1   3  -1
M  END
> <s_m_entry_id>
354

> <s_m_entry_name>
MCL1_48.1

> <r_m_Molecular_weight>
333.37009

> <s_m_Source_Path>
C:\Users\yujiethinkpad\Desktop\05A\MCL1\original

> <s_m_Source_File>
MCL1_48.sdf

> <r_user_dG.exp>
-6.6626190630157

> <s_fepmapper_entryid>
3

> <i_fepmapper_bias>
0

> <i_fepmapper_affinity>
1

> <r_fepmapper_exp_dG>
-6.66261906302

> <i_fepmapper_unit>
1

> <i_m_Source_File_Index>
1

> <s_m_job_name>
align_ligands_3

> <s_i_glide_gridfile>
glide-grid_MCL1

> <i_i_glide_lignum>
32

> <i_i_glide_rotatable_bonds>
6

> <r_i_docking_score>
-7.57076242864081

> <r_i_glide_ligand_efficiency>
-0.302830497145633

> <r_i_glide_ligand_efficiency_sa>
-0.885481744375565

> <r_i_glide_ligand_efficiency_ln>
-1.79449757302997

> <r_i_glide_gscore>
-7.57076242864081

> <r_i_glide_lipo>
-4.61809490522945

> <r_i_glide_hbond>
-0.2

> <r_i_glide_metal>
0

> <r_i_glide_rewards>
-1.53485655343099

> <r_i_glide_evdw>
-30.141565322876

> <r_i_glide_ecoul>
-2.46352505683899

> <r_i_glide_erotb>
0.678363432142764

> <r_i_glide_esite>
-0.0195673774534932

> <r_i_glide_emodel>
-41.5883085896237

> <r_i_glide_energy>
-32.605090379715

> <r_i_glide_einternal>
4.57946586608887

> <i_i_glide_confnum>
36

> <i_i_glide_posenum>
97

> <r_i_glide_eff_state_penalty>
0

> <r_glide_shape_similarity>
0.890257656574249

> <i_phase_Input_Structure_Number>
35

> <i_phase_Structure_Number>
35

> <r_phase_Similarity_to_Reference>
0.887208090782019

> <i_phase_Reference_Structure>
1

> <s_phase_Alignment_Method>
snapped core

> <s_phase_Alignment_Reason>


> <s_phase_Core_SMARTS>
a1aaaaa1AAAAa(aa2)a(a23)aaaa3

> <s_f3d_frozen_atoms>
19 18 17 37 38 16 15 14 13 12 11 4 33 10 5 9 8 7 6 30 31 32 28 29 26 27 24 25 34 23 22 21 20

> <s_m_subgroup_title>
align_ligands_3->glide-dock_SP_redock_05676_lib1

> <s_m_subgroupid>
align_ligands_3->glide-dock_SP_redock_05676_lib11

> <b_m_subgroup_collapsed>
0

$$$$
