51
                    3D
 Schrodinger Suite 2021-2.
 44 47  0  0  1  0            999 V2000
    3.0246  -47.2604    6.9944 O   0  0  0  0  0  0
    2.9960  -48.5042    6.8710 C   0  0  0  0  0  0
    4.0304  -49.1832    7.0447 O   0  5  0  0  0  0
    1.7173  -49.1783    6.5232 C   0  0  0  0  0  0
   -0.1074  -50.8954    6.4429 C   0  0  0  0  0  0
   -1.0177  -51.9619    6.5205 C   0  0  0  0  0  0
   -2.3600  -51.7826    6.1407 C   0  0  0  0  0  0
   -2.7782  -50.5305    5.6661 C   0  0  0  0  0  0
   -1.8605  -49.4770    5.5713 C   0  0  0  0  0  0
   -0.5101  -49.6375    5.9492 C   0  0  0  0  0  0
    0.5664  -48.6906    5.9585 C   0  0  0  0  0  0
    0.3137  -47.3112    5.5435 C   0  0  0  0  0  0
   -0.2396  -46.7215    6.7936 C   0  0  0  0  0  0
   -0.6961  -45.3559    6.6884 C   0  0  0  0  0  0
   -1.9385  -45.1775    6.0286 O   0  0  0  0  0  0
   -3.0375  -45.0386    6.8285 C   0  0  0  0  0  0
   -5.5067  -45.0317    8.1774 C   0  0  0  0  0  0
   -4.4626  -45.8627    8.6014 C   0  0  0  0  0  0
   -3.2095  -45.7791    7.9933 C   0  0  0  0  0  0
   -0.6920  -52.9218    6.8961 H   0  0  0  0  0  0
   -3.0669  -52.5919    6.2437 H   0  0  0  0  0  0
   -3.8119  -50.3854    5.3899 H   0  0  0  0  0  0
   -2.5354  -47.9789    5.0680 Cl  0  0  0  0  0  0
    1.2612  -46.8638    5.2292 H   0  0  0  0  0  0
   -0.3130  -47.2764    4.6597 H   0  0  0  0  0  0
   -1.0310  -47.3553    7.1853 H   0  0  0  0  0  0
    0.5894  -46.8035    7.4530 H   0  0  0  0  0  0
   -0.7799  -44.9389    7.6902 H   0  0  0  0  0  0
    0.0466  -44.7752    6.1375 H   0  0  0  0  0  0
   -2.3960  -46.3099    8.4548 H   0  0  0  0  0  0
   -5.3575  -44.2723    7.0078 C   0  0  0  0  0  0
   -4.1066  -44.2675    6.3653 C   0  0  0  0  0  0
   -3.9621  -43.4457    5.2028 C   0  0  0  0  0  0
   -5.1128  -42.8766    4.6087 C   0  0  0  0  0  0
   -6.3740  -43.0208    5.2280 C   0  0  0  0  0  0
   -6.4822  -43.6084    6.4473 C   0  0  0  0  0  0
   -3.0169  -43.3865    4.6791 H   0  0  0  0  0  0
   -5.0189  -42.3435    3.6710 H   0  0  0  0  0  0
   -7.2482  -42.5654    4.7801 H   0  0  0  0  0  0
   -7.4536  -43.7074    6.9088 H   0  0  0  0  0  0
   -4.6309  -46.5832    9.3882 H   0  0  0  0  0  0
   -6.4511  -45.0320    8.7069 H   0  0  0  0  0  0
    1.5846  -50.8595    6.9155 N   0  0  0  0  0  0
    2.3728  -51.3618    7.3057 H   0  0  0  0  0  0
  1  2  2  0  0  0
  2  3  1  0  0  0
  2  4  1  0  0  0
  4 11  2  0  0  0
  4 43  1  0  0  0
  5  6  1  0  0  0
  5 10  2  0  0  0
  5 43  1  0  0  0
  6  7  2  0  0  0
  6 20  1  0  0  0
  7  8  1  0  0  0
  7 21  1  0  0  0
  8  9  2  0  0  0
  8 22  1  0  0  0
  9 10  1  0  0  0
  9 23  1  0  0  0
 10 11  1  0  0  0
 11 12  1  0  0  0
 12 24  1  0  0  0
 12 25  1  0  0  0
 12 13  1  0  0  0
 13 14  1  0  0  0
 13 26  1  0  0  0
 13 27  1  0  0  0
 14 15  1  0  0  0
 14 28  1  0  0  0
 14 29  1  0  0  0
 15 16  1  0  0  0
 16 19  2  0  0  0
 16 32  1  0  0  0
 17 18  2  0  0  0
 17 31  1  0  0  0
 17 42  1  0  0  0
 18 19  1  0  0  0
 18 41  1  0  0  0
 19 30  1  0  0  0
 31 32  2  0  0  0
 31 36  1  0  0  0
 32 33  1  0  0  0
 33 34  2  0  0  0
 33 37  1  0  0  0
 34 35  1  0  0  0
 34 38  1  0  0  0
 35 36  2  0  0  0
 35 39  1  0  0  0
 36 40  1  0  0  0
 43 44  1  0  0  0
M  CHG  1   3  -1
M  END
> <s_m_entry_id>
330

> <s_m_entry_name>
MCL1_51.1

> <r_m_Molecular_weight>
378.83869

> <s_m_Source_Path>
C:\Users\yujiethinkpad\Desktop\05A\MCL1\original

> <s_m_Source_File>
MCL1_51.sdf

> <r_user_dG.exp>
-8.44846494324944

> <s_fepmapper_entryid>
12

> <i_fepmapper_bias>
0

> <i_fepmapper_affinity>
1

> <r_fepmapper_exp_dG>
-8.44846494325

> <i_fepmapper_unit>
1

> <i_m_Source_File_Index>
1

> <s_m_job_name>
align_ligands_3

> <s_i_glide_gridfile>
glide-grid_MCL1

> <i_i_glide_lignum>
35

> <i_i_glide_rotatable_bonds>
6

> <r_i_docking_score>
-8.59041561686925

> <r_i_glide_ligand_efficiency>
-0.318163541365528

> <r_i_glide_ligand_efficiency_sa>
-0.954490623047969

> <r_i_glide_ligand_efficiency_ln>
-1.9997071315372

> <r_i_glide_gscore>
-8.59041561686925

> <r_i_glide_lipo>
-5.37448724760708

> <r_i_glide_hbond>
-0.239368148690816

> <r_i_glide_metal>
0

> <r_i_glide_rewards>
-1.72617286363636

> <r_i_glide_evdw>
-29.2456607818604

> <r_i_glide_ecoul>
-2.0172815322876

> <r_i_glide_erotb>
0.540262106106263

> <r_i_glide_esite>
-0.0257741941050989

> <r_i_glide_emodel>
-37.8650575808117

> <r_i_glide_energy>
-31.2629423141479

> <r_i_glide_einternal>
4.97737789154053

> <i_i_glide_confnum>
73

> <i_i_glide_posenum>
11

> <r_i_glide_eff_state_penalty>
0

> <r_glide_shape_similarity>
0.848353326320648

> <i_phase_Input_Structure_Number>
11

> <i_phase_Structure_Number>
11

> <r_phase_Similarity_to_Reference>
0.838933806079565

> <i_phase_Reference_Structure>
1

> <s_phase_Alignment_Method>
snapped core

> <s_phase_Alignment_Reason>


> <s_phase_Core_SMARTS>
a1aaaaa1AAAAa(aa2)a(a23)aaaa3

> <s_f3d_frozen_atoms>
32 31 17 18 19 16 15 14 13 12 11 4 43 10 5 9 8 7 6 42 41 30 28 29 26 27 24 25 44 23 22 21 20

> <s_m_subgroup_title>
align_ligands_3->glide-dock_SP_redock_05676_lib1

> <s_m_subgroupid>
align_ligands_3->glide-dock_SP_redock_05676_lib11

> <b_m_subgroup_collapsed>
0

$$$$
