57
                    3D
 Schrodinger Suite 2021-2.
 47 50  0  0  1  0            999 V2000
    3.0246  -47.2604    6.9944 O   0  0  0  0  0  0
    2.9960  -48.5042    6.8710 C   0  0  0  0  0  0
    4.0304  -49.1832    7.0447 O   0  5  0  0  0  0
    1.7173  -49.1783    6.5232 C   0  0  0  0  0  0
   -0.1074  -50.8954    6.4429 C   0  0  0  0  0  0
   -1.0177  -51.9619    6.5205 C   0  0  0  0  0  0
   -2.3600  -51.7826    6.1407 C   0  0  0  0  0  0
   -2.7782  -50.5305    5.6661 C   0  0  0  0  0  0
   -1.8605  -49.4770    5.5713 C   0  0  0  0  0  0
   -0.5101  -49.6375    5.9492 C   0  0  0  0  0  0
    0.5664  -48.6906    5.9585 C   0  0  0  0  0  0
    0.3137  -47.3112    5.5435 C   0  0  0  0  0  0
   -0.2396  -46.7215    6.7936 C   0  0  0  0  0  0
   -0.6961  -45.3559    6.6884 C   0  0  0  0  0  0
   -1.9385  -45.1775    6.0286 O   0  0  0  0  0  0
   -3.0375  -45.0386    6.8285 C   0  0  0  0  0  0
   -5.5067  -45.0317    8.1774 C   0  0  0  0  0  0
   -4.4626  -45.8627    8.6014 C   0  0  0  0  0  0
   -3.2095  -45.7791    7.9933 C   0  0  0  0  0  0
   -0.7028  -52.9256    6.8912 H   0  0  0  0  0  0
   -3.0618  -52.6016    6.2186 H   0  0  0  0  0  0
   -3.8087  -50.3810    5.3725 H   0  0  0  0  0  0
   -2.2043  -48.5090    5.2363 H   0  0  0  0  0  0
    1.2119  -46.8105    5.1817 H   0  0  0  0  0  0
   -0.4153  -47.2967    4.7359 H   0  0  0  0  0  0
   -1.1658  -47.2784    6.9689 H   0  0  0  0  0  0
    0.5132  -46.8122    7.5823 H   0  0  0  0  0  0
   -0.7556  -44.9721    7.7078 H   0  0  0  0  0  0
    0.0782  -44.6916    6.3606 H   0  0  0  0  0  0
   -2.3862  -46.2972    8.4583 H   0  0  0  0  0  0
   -5.3575  -44.2723    7.0078 C   0  0  0  0  0  0
   -4.1066  -44.2675    6.3653 C   0  0  0  0  0  0
   -3.9726  -43.4962    5.1775 C   0  0  0  0  0  0
   -5.1117  -42.9008    4.5893 C   0  0  0  0  0  0
   -6.3552  -42.9388    5.2663 C   0  0  0  0  0  0
   -6.4793  -43.6326    6.4330 C   0  0  0  0  0  0
   -3.0287  -43.4527    4.6518 H   0  0  0  0  0  0
   -5.0234  -42.3814    3.6471 H   0  0  0  0  0  0
   -7.2005  -42.4048    4.8611 H   0  0  0  0  0  0
   -7.4543  -43.7694    6.8761 H   0  0  0  0  0  0
   -4.6130  -46.5719    9.3985 H   0  0  0  0  0  0
   -6.4514  -45.0589    8.7003 H   0  0  0  0  0  0
    2.5123  -51.8102    7.5215 C   0  0  0  0  0  0
    3.4067  -51.8893    6.9035 H   0  0  0  0  0  0
    2.7883  -51.4639    8.5175 H   0  0  0  0  0  0
    2.0345  -52.7870    7.5959 H   0  0  0  0  0  0
    1.5846  -50.8595    6.9155 N   0  0  0  0  0  0
  1  2  2  0  0  0
  2  3  1  0  0  0
  2  4  1  0  0  0
  4 11  2  0  0  0
  4 47  1  0  0  0
  5  6  1  0  0  0
  5 10  2  0  0  0
  5 47  1  0  0  0
  6  7  2  0  0  0
  6 20  1  0  0  0
  7  8  1  0  0  0
  7 21  1  0  0  0
  8  9  2  0  0  0
  8 22  1  0  0  0
  9 10  1  0  0  0
  9 23  1  0  0  0
 10 11  1  0  0  0
 11 12  1  0  0  0
 12 24  1  0  0  0
 12 25  1  0  0  0
 12 13  1  0  0  0
 13 14  1  0  0  0
 13 26  1  0  0  0
 13 27  1  0  0  0
 14 15  1  0  0  0
 14 28  1  0  0  0
 14 29  1  0  0  0
 15 16  1  0  0  0
 16 19  2  0  0  0
 16 32  1  0  0  0
 17 18  2  0  0  0
 17 31  1  0  0  0
 17 42  1  0  0  0
 18 19  1  0  0  0
 18 41  1  0  0  0
 19 30  1  0  0  0
 31 32  2  0  0  0
 31 36  1  0  0  0
 32 33  1  0  0  0
 33 34  2  0  0  0
 33 37  1  0  0  0
 34 35  1  0  0  0
 34 38  1  0  0  0
 35 36  2  0  0  0
 35 39  1  0  0  0
 36 40  1  0  0  0
 43 44  1  0  0  0
 43 45  1  0  0  0
 43 46  1  0  0  0
 43 47  1  0  0  0
M  CHG  1   3  -1
M  END
> <s_m_entry_id>
332

> <s_m_entry_name>
MCL1_57.1

> <r_m_Molecular_weight>
358.42075

> <s_m_Source_Path>
C:\Users\yujiethinkpad\Desktop\05A\MCL1\original

> <s_m_Source_File>
MCL1_57.sdf

> <r_user_dG.exp>
-9.03887132268158

> <s_fepmapper_entryid>
34

> <i_fepmapper_bias>
0

> <i_fepmapper_affinity>
1

> <r_fepmapper_exp_dG>
-9.03887132268

> <i_fepmapper_unit>
1

> <i_m_Source_File_Index>
1

> <s_m_job_name>
align_ligands_3

> <s_i_glide_gridfile>
glide-grid_MCL1

> <i_i_glide_lignum>
40

> <i_i_glide_rotatable_bonds>
6

> <r_i_docking_score>
-8.55469694826189

> <r_i_glide_ligand_efficiency>
-0.316840627713403

> <r_i_glide_ligand_efficiency_sa>
-0.950521882095955

> <r_i_glide_ligand_efficiency_ln>
-1.99139241435368

> <r_i_glide_gscore>
-8.55469694826189

> <r_i_glide_lipo>
-5.3132454243079

> <r_i_glide_hbond>
-0.303384598077631

> <r_i_glide_metal>
0

> <r_i_glide_rewards>
-2.02830811909611

> <r_i_glide_evdw>
-24.6152534484863

> <r_i_glide_ecoul>
-1.79367649555206

> <r_i_glide_erotb>
0.596475082770476

> <r_i_glide_esite>
-0.00641974279359695

> <r_i_glide_emodel>
-32.6747612242323

> <r_i_glide_energy>
-26.4089299440384

> <r_i_glide_einternal>
2.15502667427063

> <i_i_glide_confnum>
11

> <i_i_glide_posenum>
22

> <r_i_glide_eff_state_penalty>
0

> <r_glide_shape_similarity>
0.855886220932007

> <i_phase_Input_Structure_Number>
13

> <i_phase_Structure_Number>
13

> <r_phase_Similarity_to_Reference>
0.825052229776827

> <i_phase_Reference_Structure>
1

> <s_phase_Alignment_Method>
snapped core

> <s_phase_Alignment_Reason>


> <s_phase_Core_SMARTS>
a1aaaaa1AAAAa(aa2)a(a23)aaaa3

> <s_f3d_frozen_atoms>
32 31 17 18 19 16 15 14 13 12 11 4 47 10 5 9 8 7 6 42 41 30 28 29 26 27 24 25 23 22 21 20

> <s_m_subgroup_title>
align_ligands_3->glide-dock_SP_redock_05676_lib1

> <s_m_subgroupid>
align_ligands_3->glide-dock_SP_redock_05676_lib11

> <b_m_subgroup_collapsed>
0

$$$$
