31
                    3D
 Schrodinger Suite 2021-2.
 41 43  0  0  1  0            999 V2000
    3.8489  -49.5713    6.4902 O   0  0  0  0  0  0
    2.9696  -48.6774    6.5152 C   0  0  0  0  0  0
    3.2599  -47.4811    6.7513 O   0  5  0  0  0  0
    1.5488  -49.0582    6.2890 C   0  0  0  0  0  0
   -0.1420  -50.6240    6.3526 C   0  0  0  0  0  0
   -0.9791  -51.7491    6.5488 C   0  0  0  0  0  0
   -2.3765  -51.6192    6.3674 C   0  0  0  0  0  0
   -2.9238  -50.3819    5.9633 C   0  0  0  0  0  0
   -2.0787  -49.2710    5.7623 C   0  0  0  0  0  0
   -0.6770  -49.3505    5.9830 C   0  0  0  0  0  0
    0.3824  -48.3608    5.9963 C   0  0  0  0  0  0
    0.1088  -46.8606    5.8874 C   0  0  0  0  0  0
   -0.8261  -46.3814    7.0558 C   0  0  0  0  0  0
   -2.2407  -45.8115    6.8029 C   0  0  0  0  0  0
   -2.9437  -46.1794    7.9921 O   0  0  0  0  0  0
   -4.2475  -45.7867    8.1298 C   0  0  0  0  0  0
   -4.9038  -45.0051    7.1516 C   0  0  0  0  0  0
   -6.2402  -44.6061    7.3246 C   0  0  0  0  0  0
   -6.9184  -44.9341    8.5314 C   0  0  0  0  0  0
   -6.2609  -45.7035    9.5248 C   0  0  0  0  0  0
   -4.9377  -46.1546    9.3096 C   0  0  0  0  0  0
   -0.5531  -52.6974    6.8408 H   0  0  0  0  0  0
   -3.0243  -52.4704    6.5206 H   0  0  0  0  0  0
   -3.9885  -50.2849    5.8053 H   0  0  0  0  0  0
   -2.5176  -48.3378    5.4555 H   0  0  0  0  0  0
   -0.3573  -46.6619    4.9254 H   0  0  0  0  0  0
    1.0367  -46.2883    5.8953 H   0  0  0  0  0  0
   -0.2900  -45.8060    7.8088 H   0  0  0  0  0  0
   -1.1401  -47.2981    7.5508 H   0  0  0  0  0  0
   -2.7053  -46.2684    5.9304 H   0  0  0  0  0  0
   -2.3402  -44.7347    6.7032 H   0  0  0  0  0  0
   -4.4194  -44.7071    6.2346 H   0  0  0  0  0  0
   -4.4383  -46.7470   10.0624 H   0  0  0  0  0  0
    1.2277  -50.4122    6.4474 N   0  0  0  0  0  0
    1.9482  -51.0902    6.6770 H   0  0  0  0  0  0
   -6.7758  -45.9638   10.4376 H   0  0  0  0  0  0
   -7.9398  -44.6179    8.6864 H   0  0  0  0  0  0
   -7.9402  -43.1204    6.6682 F   0  0  0  0  0  0
   -6.9224  -43.8418    6.1798 C   0  0  0  0  0  0
   -7.4140  -44.6934    5.2702 F   0  0  0  0  0  0
   -6.0526  -43.0319    5.5499 F   0  0  0  0  0  0
  1  2  2  0  0  0
  2  3  1  0  0  0
  2  4  1  0  0  0
  4 11  2  0  0  0
  4 34  1  0  0  0
  5  6  1  0  0  0
  5 10  2  0  0  0
  5 34  1  0  0  0
  6  7  2  0  0  0
  6 22  1  0  0  0
  7  8  1  0  0  0
  7 23  1  0  0  0
  8  9  2  0  0  0
  8 24  1  0  0  0
  9 10  1  0  0  0
  9 25  1  0  0  0
 10 11  1  0  0  0
 11 12  1  0  0  0
 12 26  1  0  0  0
 12 27  1  0  0  0
 12 13  1  0  0  0
 13 14  1  0  0  0
 13 28  1  0  0  0
 13 29  1  0  0  0
 14 15  1  0  0  0
 14 30  1  0  0  0
 14 31  1  0  0  0
 15 16  1  0  0  0
 16 17  1  0  0  0
 16 21  2  0  0  0
 17 18  2  0  0  0
 17 32  1  0  0  0
 18 19  1  0  0  0
 18 39  1  0  0  0
 19 20  2  0  0  0
 19 37  1  0  0  0
 20 21  1  0  0  0
 20 36  1  0  0  0
 21 33  1  0  0  0
 34 35  1  0  0  0
 38 39  1  0  0  0
 39 40  1  0  0  0
 39 41  1  0  0  0
M  CHG  1   3  -1
M  END
> <s_m_entry_id>
80

> <s_m_entry_name>
MCL1_31.1

> <r_m_Molecular_weight>
362.3315

> <s_m_Source_Path>
C:\Users\yujiethinkpad\Desktop\05A\MCL1\original

> <s_m_Source_File>
MCL1_31.sdf

> <r_user_dG.exp>
-7.91951688961355

> <s_fepmapper_entryid>
7

> <i_fepmapper_bias>
0

> <i_fepmapper_affinity>
1

> <r_fepmapper_exp_dG>
-7.91951688961

> <i_fepmapper_unit>
1

> <i_m_Source_File_Index>
1

> <s_m_job_name>
glide-dock_SP_redock_1080

> <s_i_glide_gridfile>
glide-grid_MCL1

> <i_i_glide_lignum>
16

> <i_i_glide_rotatable_bonds>
7

> <r_i_docking_score>
-8.70879237892192

> <r_i_glide_ligand_efficiency>
-0.334953553035459

> <r_i_glide_ligand_efficiency_sa>
-0.992298582888958

> <r_i_glide_ligand_efficiency_ln>
-2.04523131431126

> <r_i_glide_gscore>
-8.70879237892192

> <r_i_glide_lipo>
-4.64638652575589

> <r_i_glide_hbond>
-0.2

> <r_i_glide_metal>
0

> <r_i_glide_rewards>
-2.88371026746984

> <r_i_glide_evdw>
-28.0711574554443

> <r_i_glide_ecoul>
-1.98600578308105

> <r_i_glide_erotb>
0.731300272525245

> <r_i_glide_esite>
-0.00853711798706173

> <r_i_glide_emodel>
-38.6131986396331

> <r_i_glide_energy>
-30.0571632385254

> <r_i_glide_einternal>
1.66930329799652

> <i_i_glide_confnum>
47

> <i_i_glide_posenum>
209

> <r_i_glide_eff_state_penalty>
0

> <r_glide_shape_similarity>
0.878446400165558

> <s_m_subgroup_title>
glide-dock_SP_redock_1080_lib1

> <s_m_subgroupid>
glide-dock_SP_redock_1080_lib1

> <b_m_subgroup_collapsed>
0

$$$$
