32
                    3D
 Schrodinger Suite 2021-2.
 41 43  0  0  1  0            999 V2000
    3.9095  -49.7633    6.6153 O   0  0  0  0  0  0
    3.0241  -48.8881    6.5801 C   0  0  0  0  0  0
    3.2598  -47.6768    6.7610 O   0  5  0  0  0  0
    1.6387  -49.2730    6.3558 C   0  0  0  0  0  0
   -0.1553  -50.6690    6.4321 C   0  0  0  0  0  0
   -1.0869  -51.7032    6.6050 C   0  0  0  0  0  0
   -2.4493  -51.4500    6.3782 C   0  0  0  0  0  0
   -2.8661  -50.1793    5.9665 C   0  0  0  0  0  0
   -1.9249  -49.1647    5.7732 C   0  0  0  0  0  0
   -0.5604  -49.3804    6.0177 C   0  0  0  0  0  0
    0.5754  -48.5307    5.9508 C   0  0  0  0  0  0
    0.5793  -47.1078    5.5141 C   0  0  0  0  0  0
    0.4468  -46.1199    6.6675 C   0  0  0  0  0  0
   -0.9131  -46.2055    7.3451 C   0  0  0  0  0  0
   -1.9392  -45.8040    6.4759 O   0  0  0  0  0  0
   -3.1385  -45.4817    7.0525 C   0  0  0  0  0  0
   -3.9998  -44.6078    6.3501 C   0  0  0  0  0  0
   -5.3163  -44.4194    6.8045 C   0  0  0  0  0  0
   -5.7290  -45.0008    8.0187 C   0  0  0  0  0  0
   -4.8513  -45.8074    8.7564 C   0  0  0  0  0  0
   -3.5682  -46.0618    8.2648 C   0  0  0  0  0  0
   -0.7578  -52.6824    6.9192 H   0  0  0  0  0  0
   -3.1772  -52.2373    6.5149 H   0  0  0  0  0  0
   -3.9134  -49.9848    5.7808 H   0  0  0  0  0  0
   -2.2593  -48.1904    5.4472 H   0  0  0  0  0  0
   -0.2200  -46.9471    4.7909 H   0  0  0  0  0  0
    1.4972  -46.8903    4.9662 H   0  0  0  0  0  0
    0.6076  -45.1085    6.2989 H   0  0  0  0  0  0
    1.2324  -46.2951    7.4032 H   0  0  0  0  0  0
   -0.9059  -45.6314    8.2742 H   0  0  0  0  0  0
   -1.1399  -47.2418    7.5507 H   0  0  0  0  0  0
   -3.6896  -44.2076    5.3979 H   0  0  0  0  0  0
   -2.9408  -46.7390    8.8242 H   0  0  0  0  0  0
    1.2139  -50.5695    6.5855 N   0  0  0  0  0  0
    1.8629  -51.2837    6.8754 H   0  0  0  0  0  0
   -5.1702  -46.2640    9.6821 H   0  0  0  0  0  0
   -6.0000  -43.8110    6.2305 H   0  0  0  0  0  0
   -7.1378  -44.7763    8.5084 C   0  0  0  0  0  0
   -7.2361  -45.0039    9.5691 H   0  0  0  0  0  0
   -7.8375  -45.3992    7.9531 H   0  0  0  0  0  0
   -7.4267  -43.7390    8.3521 H   0  0  0  0  0  0
  1  2  2  0  0  0
  2  3  1  0  0  0
  2  4  1  0  0  0
  4 11  2  0  0  0
  4 34  1  0  0  0
  5  6  1  0  0  0
  5 10  2  0  0  0
  5 34  1  0  0  0
  6  7  2  0  0  0
  6 22  1  0  0  0
  7  8  1  0  0  0
  7 23  1  0  0  0
  8  9  2  0  0  0
  8 24  1  0  0  0
  9 10  1  0  0  0
  9 25  1  0  0  0
 10 11  1  0  0  0
 11 12  1  0  0  0
 12 26  1  0  0  0
 12 27  1  0  0  0
 12 13  1  0  0  0
 13 14  1  0  0  0
 13 28  1  0  0  0
 13 29  1  0  0  0
 14 15  1  0  0  0
 14 30  1  0  0  0
 14 31  1  0  0  0
 15 16  1  0  0  0
 16 17  1  0  0  0
 16 21  2  0  0  0
 17 18  2  0  0  0
 17 32  1  0  0  0
 18 19  1  0  0  0
 18 37  1  0  0  0
 19 20  2  0  0  0
 19 38  1  0  0  0
 20 21  1  0  0  0
 20 36  1  0  0  0
 21 33  1  0  0  0
 34 35  1  0  0  0
 38 39  1  0  0  0
 38 40  1  0  0  0
 38 41  1  0  0  0
M  CHG  1   3  -1
M  END
> <s_m_entry_id>
106

> <s_m_entry_name>
MCL1_32.1

> <r_m_Molecular_weight>
308.36021

> <s_m_Source_Path>
C:\Users\yujiethinkpad\Desktop\05A\MCL1\original

> <s_m_Source_File>
MCL1_32.sdf

> <r_user_dG.exp>
-6.58301699393044

> <s_fepmapper_entryid>
10

> <i_fepmapper_bias>
0

> <i_fepmapper_affinity>
1

> <r_fepmapper_exp_dG>
-6.58301699393

> <i_fepmapper_unit>
1

> <i_m_Source_File_Index>
1

> <s_m_job_name>
glide-dock_SP_redock_1080

> <s_i_glide_gridfile>
glide-grid_MCL1

> <i_i_glide_lignum>
17

> <i_i_glide_rotatable_bonds>
6

> <r_i_docking_score>
-7.32641152517154

> <r_i_glide_ligand_efficiency>
-0.318539631529198

> <r_i_glide_ligand_efficiency_sa>
-0.905884338933171

> <r_i_glide_ligand_efficiency_ln>
-1.77159273901329

> <r_i_glide_gscore>
-7.32641152517154

> <r_i_glide_lipo>
-4.4537034018607

> <r_i_glide_hbond>
-0.2

> <r_i_glide_metal>
0

> <r_i_glide_rewards>
-1.97964544585751

> <r_i_glide_evdw>
-24.8698482513428

> <r_i_glide_ecoul>
-2.75610876083374

> <r_i_glide_erotb>
0.972874471200538

> <r_i_glide_esite>
-0.00902842196167044

> <r_i_glide_emodel>
-37.7796184521778

> <r_i_glide_energy>
-27.6259570121765

> <r_i_glide_einternal>
3.92161798477173

> <i_i_glide_confnum>
197

> <i_i_glide_posenum>
278

> <r_i_glide_eff_state_penalty>
0

> <r_glide_shape_similarity>
0.923640847206116

> <s_m_subgroup_title>
glide-dock_SP_redock_1080_lib1

> <s_m_subgroupid>
glide-dock_SP_redock_1080_lib1

> <b_m_subgroup_collapsed>
0

$$$$
