34
                    3D
 Schrodinger Suite 2021-2.
 41 43  0  0  1  0            999 V2000
    3.9652  -49.7520    6.6574 O   0  0  0  0  0  0
    3.0578  -48.8894    6.5966 C   0  0  0  0  0  0
    3.2599  -47.6635    6.7661 O   0  5  0  0  0  0
    1.6596  -49.2981    6.3649 C   0  0  0  0  0  0
   -0.1626  -50.7011    6.4451 C   0  0  0  0  0  0
   -1.1138  -51.7373    6.6201 C   0  0  0  0  0  0
   -2.4845  -51.4723    6.3820 C   0  0  0  0  0  0
   -2.8989  -50.1906    5.9582 C   0  0  0  0  0  0
   -1.9449  -49.1696    5.7668 C   0  0  0  0  0  0
   -0.5667  -49.3939    6.0174 C   0  0  0  0  0  0
    0.5902  -48.5422    5.9512 C   0  0  0  0  0  0
    0.6035  -47.0992    5.5091 C   0  0  0  0  0  0
    0.4755  -46.1148    6.6868 C   0  0  0  0  0  0
   -0.8923  -46.2066    7.3792 C   0  0  0  0  0  0
   -1.9174  -45.8038    6.5020 O   0  0  0  0  0  0
   -3.1368  -45.5050    7.0628 C   0  0  0  0  0  0
   -3.9667  -44.6271    6.3261 C   0  0  0  0  0  0
   -5.2898  -44.3911    6.7467 C   0  0  0  0  0  0
   -5.7824  -44.9894    7.9283 C   0  0  0  0  0  0
   -4.9342  -45.8185    8.7148 C   0  0  0  0  0  0
   -3.6145  -46.0849    8.2759 C   0  0  0  0  0  0
   -0.7969  -52.7181    6.9387 H   0  0  0  0  0  0
   -3.2130  -52.2597    6.5164 H   0  0  0  0  0  0
   -3.9447  -49.9928    5.7690 H   0  0  0  0  0  0
   -2.2708  -48.1933    5.4421 H   0  0  0  0  0  0
   -0.1996  -46.9248    4.7956 H   0  0  0  0  0  0
    1.5209  -46.8827    4.9603 H   0  0  0  0  0  0
    0.6335  -45.0987    6.3294 H   0  0  0  0  0  0
    1.2598  -46.2969    7.4212 H   0  0  0  0  0  0
   -0.8957  -45.6387    8.3108 H   0  0  0  0  0  0
   -1.1397  -47.2440    7.5631 H   0  0  0  0  0  0
   -3.6145  -44.2067    5.3951 H   0  0  0  0  0  0
   -2.9990  -46.7562    8.8545 H   0  0  0  0  0  0
    1.2232  -50.6092    6.6021 N   0  0  0  0  0  0
    1.8643  -51.3359    6.9018 H   0  0  0  0  0  0
   -5.3052  -46.2742    9.6212 H   0  0  0  0  0  0
   -5.9318  -43.7691    6.1411 H   0  0  0  0  0  0
   -7.2424  -44.7139    8.2890 C   0  0  0  0  0  0
   -7.4315  -44.9975    9.5877 F   0  0  0  0  0  0
   -8.1129  -45.4060    7.5509 F   0  0  0  0  0  0
   -7.5401  -43.4443    7.9813 F   0  0  0  0  0  0
  1  2  2  0  0  0
  2  3  1  0  0  0
  2  4  1  0  0  0
  4 11  2  0  0  0
  4 34  1  0  0  0
  5  6  1  0  0  0
  5 10  2  0  0  0
  5 34  1  0  0  0
  6  7  2  0  0  0
  6 22  1  0  0  0
  7  8  1  0  0  0
  7 23  1  0  0  0
  8  9  2  0  0  0
  8 24  1  0  0  0
  9 10  1  0  0  0
  9 25  1  0  0  0
 10 11  1  0  0  0
 11 12  1  0  0  0
 12 26  1  0  0  0
 12 27  1  0  0  0
 12 13  1  0  0  0
 13 14  1  0  0  0
 13 28  1  0  0  0
 13 29  1  0  0  0
 14 15  1  0  0  0
 14 30  1  0  0  0
 14 31  1  0  0  0
 15 16  1  0  0  0
 16 17  1  0  0  0
 16 21  2  0  0  0
 17 18  2  0  0  0
 17 32  1  0  0  0
 18 19  1  0  0  0
 18 37  1  0  0  0
 19 20  2  0  0  0
 19 38  1  0  0  0
 20 21  1  0  0  0
 20 36  1  0  0  0
 21 33  1  0  0  0
 34 35  1  0  0  0
 38 39  1  0  0  0
 38 40  1  0  0  0
 38 41  1  0  0  0
M  CHG  1   3  -1
M  END
> <s_m_entry_id>
105

> <s_m_entry_name>
MCL1_34.1

> <r_m_Molecular_weight>
362.3315

> <s_m_Source_Path>
C:\Users\yujiethinkpad\Desktop\05A\MCL1\original

> <s_m_Source_File>
MCL1_34.sdf

> <r_user_dG.exp>
-6.86919156414505

> <s_fepmapper_entryid>
42

> <i_fepmapper_bias>
0

> <i_fepmapper_affinity>
1

> <r_fepmapper_exp_dG>
-6.86919156415

> <i_fepmapper_unit>
1

> <i_m_Source_File_Index>
1

> <s_m_job_name>
glide-dock_SP_redock_1080

> <s_i_glide_gridfile>
glide-grid_MCL1

> <i_i_glide_lignum>
19

> <i_i_glide_rotatable_bonds>
7

> <r_i_docking_score>
-7.39099940320257

> <r_i_glide_ligand_efficiency>
-0.284269207815483

> <r_i_glide_ligand_efficiency_sa>
-0.842146409608049

> <r_i_glide_ligand_efficiency_ln>
-1.73575195799501

> <r_i_glide_gscore>
-7.39099940320257

> <r_i_glide_lipo>
-4.44572335602724

> <r_i_glide_hbond>
-0.2

> <r_i_glide_metal>
0

> <r_i_glide_rewards>
-2.16876804793319

> <r_i_glide_evdw>
-17.6940765380859

> <r_i_glide_ecoul>
-2.73914337158203

> <r_i_glide_erotb>
0.731300272525245

> <r_i_glide_esite>
-0.0122329391257784

> <r_i_glide_emodel>
-26.2811070696501

> <r_i_glide_energy>
-20.433219909668

> <r_i_glide_einternal>
4.57591390609741

> <i_i_glide_confnum>
113

> <i_i_glide_posenum>
229

> <r_i_glide_eff_state_penalty>
0

> <r_glide_shape_similarity>
0.93403297662735

> <s_m_subgroup_title>
glide-dock_SP_redock_1080_lib1

> <s_m_subgroupid>
glide-dock_SP_redock_1080_lib1

> <b_m_subgroup_collapsed>
0

$$$$
