35
                    3D
 Schrodinger Suite 2021-2.
 41 43  0  0  1  0            999 V2000
    3.9147  -49.7758    6.5982 O   0  0  0  0  0  0
    3.0278  -48.9065    6.5762 C   0  0  0  0  0  0
    3.2624  -47.6935    6.7514 O   0  5  0  0  0  0
    1.6400  -49.2874    6.3556 C   0  0  0  0  0  0
   -0.1615  -50.6740    6.4395 C   0  0  0  0  0  0
   -1.1059  -51.7028    6.6047 C   0  0  0  0  0  0
   -2.4640  -51.4418    6.3714 C   0  0  0  0  0  0
   -2.8653  -50.1642    5.9627 C   0  0  0  0  0  0
   -1.9208  -49.1556    5.7827 C   0  0  0  0  0  0
   -0.5579  -49.3802    6.0289 C   0  0  0  0  0  0
    0.5828  -48.5348    5.9507 C   0  0  0  0  0  0
    0.5915  -47.1053    5.5124 C   0  0  0  0  0  0
    0.4569  -46.1216    6.6681 C   0  0  0  0  0  0
   -0.9097  -46.2037    7.3274 C   0  0  0  0  0  0
   -1.9217  -45.8058    6.4412 O   0  0  0  0  0  0
   -3.1304  -45.4928    6.9969 C   0  0  0  0  0  0
   -3.5819  -46.0654    8.1952 C   0  0  0  0  0  0
   -4.8625  -45.7735    8.6636 C   0  0  0  0  0  0
   -5.6951  -44.9078    7.9360 C   0  0  0  0  0  0
   -5.2517  -44.2962    6.7501 C   0  0  0  0  0  0
   -3.9605  -44.6062    6.2883 C   0  0  0  0  0  0
   -0.7907  -52.6821    6.9329 H   0  0  0  0  0  0
   -3.1896  -52.2361    6.5046 H   0  0  0  0  0  0
   -3.9092  -49.9471    5.7740 H   0  0  0  0  0  0
   -2.2596  -48.1888    5.4428 H   0  0  0  0  0  0
   -0.1998  -46.9322    4.7828 H   0  0  0  0  0  0
    1.5099  -46.8722    4.9682 H   0  0  0  0  0  0
    0.6324  -45.1102    6.3044 H   0  0  0  0  0  0
    1.2337  -46.3015    7.4110 H   0  0  0  0  0  0
   -0.9118  -45.6087    8.2403 H   0  0  0  0  0  0
   -1.1417  -47.2389    7.5534 H   0  0  0  0  0  0
   -2.9647  -46.7498    8.7598 H   0  0  0  0  0  0
   -3.6172  -44.2091    5.3420 H   0  0  0  0  0  0
    1.2076  -50.5823    6.5907 N   0  0  0  0  0  0
    1.8531  -51.3044    6.8768 H   0  0  0  0  0  0
   -5.8946  -43.6604    6.1706 H   0  0  0  0  0  0
   -7.2877  -44.6062    8.4627 Cl  0  0  0  0  0  0
   -5.3180  -46.3976    9.9505 C   0  0  0  0  0  0
   -4.5552  -47.0625   10.3545 H   0  0  0  0  0  0
   -6.2303  -46.9783    9.8052 H   0  0  0  0  0  0
   -5.5339  -45.6165   10.6796 H   0  0  0  0  0  0
  1  2  2  0  0  0
  2  3  1  0  0  0
  2  4  1  0  0  0
  4 11  2  0  0  0
  4 34  1  0  0  0
  5  6  1  0  0  0
  5 10  2  0  0  0
  5 34  1  0  0  0
  6  7  2  0  0  0
  6 22  1  0  0  0
  7  8  1  0  0  0
  7 23  1  0  0  0
  8  9  2  0  0  0
  8 24  1  0  0  0
  9 10  1  0  0  0
  9 25  1  0  0  0
 10 11  1  0  0  0
 11 12  1  0  0  0
 12 26  1  0  0  0
 12 27  1  0  0  0
 12 13  1  0  0  0
 13 14  1  0  0  0
 13 28  1  0  0  0
 13 29  1  0  0  0
 14 15  1  0  0  0
 14 30  1  0  0  0
 14 31  1  0  0  0
 15 16  1  0  0  0
 16 17  1  0  0  0
 16 21  2  0  0  0
 17 18  2  0  0  0
 17 32  1  0  0  0
 18 19  1  0  0  0
 18 38  1  0  0  0
 19 20  2  0  0  0
 19 37  1  0  0  0
 20 21  1  0  0  0
 20 36  1  0  0  0
 21 33  1  0  0  0
 34 35  1  0  0  0
 38 39  1  0  0  0
 38 40  1  0  0  0
 38 41  1  0  0  0
M  CHG  1   3  -1
M  END
> <s_m_entry_id>
102

> <s_m_entry_name>
MCL1_35.1

> <r_m_Molecular_weight>
342.80524

> <s_m_Source_Path>
C:\Users\yujiethinkpad\Desktop\05A\MCL1\original

> <s_m_Source_File>
MCL1_35.sdf

> <r_user_dG.exp>
-8.81264617449463

> <s_fepmapper_entryid>
6

> <i_fepmapper_bias>
0

> <i_fepmapper_affinity>
1

> <r_fepmapper_exp_dG>
-8.81264617449

> <i_fepmapper_unit>
1

> <i_m_Source_File_Index>
1

> <s_m_job_name>
glide-dock_SP_redock_1080

> <s_i_glide_gridfile>
glide-grid_MCL1

> <i_i_glide_lignum>
20

> <i_i_glide_rotatable_bonds>
6

> <r_i_docking_score>
-7.68279078469605

> <r_i_glide_ligand_efficiency>
-0.320116282695669

> <r_i_glide_ligand_efficiency_sa>
-0.923375141354287

> <r_i_glide_ligand_efficiency_ln>
-1.83884437507504

> <r_i_glide_gscore>
-7.68279078469605

> <r_i_glide_lipo>
-4.71687362520065

> <r_i_glide_hbond>
-0.2

> <r_i_glide_metal>
0

> <r_i_glide_rewards>
-1.82443629409659

> <r_i_glide_evdw>
-26.6698169708252

> <r_i_glide_ecoul>
-2.70940184593201

> <r_i_glide_erotb>
0.807043462423793

> <r_i_glide_esite>
-0.0086232023915377

> <r_i_glide_emodel>
-41.1159790022991

> <r_i_glide_energy>
-29.3792188167572

> <r_i_glide_einternal>
8.11374855041504

> <i_i_glide_confnum>
291

> <i_i_glide_posenum>
191

> <r_i_glide_eff_state_penalty>
0

> <r_glide_shape_similarity>
0.948451101779938

> <s_m_subgroup_title>
glide-dock_SP_redock_1080_lib1

> <s_m_subgroupid>
glide-dock_SP_redock_1080_lib1

> <b_m_subgroup_collapsed>
0

$$$$
