39
                    3D
 Schrodinger Suite 2021-2.
 48 51  0  0  1  0            999 V2000
    3.9854  -51.1285    8.9520 O   0  0  0  0  0  0
    3.6582  -50.3235    8.0438 C   0  0  0  0  0  0
    4.4220  -49.4073    7.6399 O   0  5  0  0  0  0
    2.2971  -50.4464    7.4443 C   0  0  0  0  0  0
    0.1739  -51.3145    7.3233 C   0  0  0  0  0  0
   -1.0474  -52.0046    7.5152 C   0  0  0  0  0  0
   -2.1803  -51.6627    6.7444 C   0  0  0  0  0  0
   -2.0636  -50.6681    5.7602 C   0  0  0  0  0  0
   -0.8205  -50.0284    5.5505 C   0  0  0  0  0  0
    0.3169  -50.2820    6.3482 C   0  0  0  0  0  0
    1.6669  -49.7542    6.4416 C   0  0  0  0  0  0
    2.3227  -48.6665    5.6623 C   0  0  0  0  0  0
    2.2171  -47.2914    6.3417 C   0  0  0  0  0  0
    1.3152  -46.3780    5.5014 C   0  0  0  0  0  0
    0.0543  -47.0049    5.3306 O   0  0  0  0  0  0
   -0.9590  -46.7424    6.2202 C   0  0  0  0  0  0
   -0.8722  -45.8469    7.3087 C   0  0  0  0  0  0
   -2.0212  -45.4610    8.0225 C   0  0  0  0  0  0
   -3.2433  -46.1240    7.7874 C   0  0  0  0  0  0
   -3.2556  -47.1875    6.8719 C   0  0  0  0  0  0
   -2.1845  -47.3895    5.9973 C   0  0  0  0  0  0
   -1.1177  -52.7755    8.2675 H   0  0  0  0  0  0
   -3.1221  -52.1697    6.8986 H   0  0  0  0  0  0
   -2.9178  -50.4129    5.1488 H   0  0  0  0  0  0
   -0.7402  -49.3103    4.7568 H   0  0  0  0  0  0
    3.3610  -48.9167    5.4504 H   0  0  0  0  0  0
    1.8619  -48.6206    4.6953 H   0  0  0  0  0  0
    1.8544  -47.3740    7.3671 H   0  0  0  0  0  0
    3.2021  -46.8360    6.4138 H   0  0  0  0  0  0
    1.2581  -45.3676    5.8918 H   0  0  0  0  0  0
    1.7326  -46.2670    4.5022 H   0  0  0  0  0  0
    0.0593  -45.4061    7.5497 H   0  0  0  0  0  0
   -2.3311  -48.0413    5.1552 H   0  0  0  0  0  0
    1.4151  -51.4066    7.9389 N   0  0  0  0  0  0
    1.6958  -52.0315    8.6875 H   0  0  0  0  0  0
   -4.1615  -47.7593    6.7511 H   0  0  0  0  0  0
   -1.9408  -44.6690    8.7497 H   0  0  0  0  0  0
   -7.1397  -45.0054    9.1197 C   0  0  0  0  0  0
   -6.3408  -45.8231    9.9508 C   0  0  0  0  0  0
   -5.0421  -46.1992    9.5493 C   0  0  0  0  0  0
   -4.5374  -45.7147    8.3239 C   0  0  0  0  0  0
   -5.3443  -44.8919    7.5033 C   0  0  0  0  0  0
   -6.6483  -44.5432    7.8868 C   0  0  0  0  0  0
   -8.1335  -44.7237    9.4283 H   0  0  0  0  0  0
   -6.7409  -46.1774   10.8881 H   0  0  0  0  0  0
   -4.4412  -46.8490   10.1693 H   0  0  0  0  0  0
   -4.9630  -44.5421    6.5550 H   0  0  0  0  0  0
   -7.2601  -43.9220    7.2491 H   0  0  0  0  0  0
  1  2  2  0  0  0
  2  3  1  0  0  0
  2  4  1  0  0  0
  4 11  2  0  0  0
  4 34  1  0  0  0
  5  6  1  0  0  0
  5 10  2  0  0  0
  5 34  1  0  0  0
  6  7  2  0  0  0
  6 22  1  0  0  0
  7  8  1  0  0  0
  7 23  1  0  0  0
  8  9  2  0  0  0
  8 24  1  0  0  0
  9 10  1  0  0  0
  9 25  1  0  0  0
 10 11  1  0  0  0
 11 12  1  0  0  0
 12 26  1  0  0  0
 12 27  1  0  0  0
 12 13  1  0  0  0
 13 14  1  0  0  0
 13 28  1  0  0  0
 13 29  1  0  0  0
 14 15  1  0  0  0
 14 30  1  0  0  0
 14 31  1  0  0  0
 15 16  1  0  0  0
 16 17  1  0  0  0
 16 21  2  0  0  0
 17 18  2  0  0  0
 17 32  1  0  0  0
 18 19  1  0  0  0
 18 37  1  0  0  0
 19 20  2  0  0  0
 19 41  1  0  0  0
 20 21  1  0  0  0
 20 36  1  0  0  0
 21 33  1  0  0  0
 34 35  1  0  0  0
 38 39  2  0  0  0
 38 43  1  0  0  0
 38 44  1  0  0  0
 39 40  1  0  0  0
 39 45  1  0  0  0
 40 41  2  0  0  0
 40 46  1  0  0  0
 41 42  1  0  0  0
 42 43  2  0  0  0
 42 47  1  0  0  0
 43 48  1  0  0  0
M  CHG  1   3  -1
M  END
> <s_m_entry_id>
89

> <s_m_entry_name>
MCL1_39.1

> <r_m_Molecular_weight>
370.4319

> <s_m_Source_Path>
C:\Users\yujiethinkpad\Desktop\05A\MCL1\original

> <s_m_Source_File>
MCL1_39.sdf

> <r_user_dG.exp>
-7.02680029426089

> <s_fepmapper_entryid>
16

> <i_fepmapper_bias>
0

> <i_fepmapper_affinity>
1

> <r_fepmapper_exp_dG>
-7.02680029426

> <i_fepmapper_unit>
1

> <i_m_Source_File_Index>
1

> <s_m_job_name>
glide-dock_SP_redock_1080

> <s_i_glide_gridfile>
glide-grid_MCL1

> <i_i_glide_lignum>
24

> <i_i_glide_rotatable_bonds>
7

> <r_i_docking_score>
-8.35020995725705

> <r_i_glide_ligand_efficiency>
-0.298221784187752

> <r_i_glide_ligand_efficiency_sa>
-0.905576980031755

> <r_i_glide_ligand_efficiency_ln>
-1.9274736309527

> <r_i_glide_gscore>
-8.35020995725705

> <r_i_glide_lipo>
-6.02173336266564

> <r_i_glide_hbond>
-0.0400047977933322

> <r_i_glide_metal>
0

> <r_i_glide_rewards>
-1.78478769793589

> <r_i_glide_evdw>
-29.9761943817139

> <r_i_glide_ecoul>
1.01017713546753

> <r_i_glide_erotb>
0.843599049903382

> <r_i_glide_esite>
0

> <r_i_glide_emodel>
-18.3439958741929

> <r_i_glide_energy>
-28.9660172462463

> <r_i_glide_einternal>
6.52015495300293

> <i_i_glide_confnum>
100

> <i_i_glide_posenum>
280

> <r_i_glide_eff_state_penalty>
0

> <r_glide_shape_similarity>
0.703472435474396

> <s_m_subgroup_title>
glide-dock_SP_redock_1080_lib1

> <s_m_subgroupid>
glide-dock_SP_redock_1080_lib1

> <b_m_subgroup_collapsed>
0

$$$$
