40
                    3D
 Schrodinger Suite 2021-2.
 49 52  0  0  1  0            999 V2000
    3.2426  -47.6095    6.8120 O   0  0  0  0  0  0
    3.0196  -48.8302    6.6310 C   0  0  0  0  0  0
    3.9132  -49.7039    6.6761 O   0  5  0  0  0  0
    1.6226  -49.2344    6.3772 C   0  0  0  0  0  0
   -0.1643  -50.6717    6.4512 C   0  0  0  0  0  0
   -1.0820  -51.7315    6.6441 C   0  0  0  0  0  0
   -2.4581  -51.5160    6.3861 C   0  0  0  0  0  0
   -2.8985  -50.2595    5.9170 C   0  0  0  0  0  0
   -1.9699  -49.2230    5.6856 C   0  0  0  0  0  0
   -0.5938  -49.3897    5.9808 C   0  0  0  0  0  0
    0.5469  -48.5151    5.9182 C   0  0  0  0  0  0
    0.5695  -47.1026    5.3889 C   0  0  0  0  0  0
    0.2221  -46.0617    6.4776 C   0  0  0  0  0  0
   -1.2764  -45.9237    6.7874 C   0  0  0  0  0  0
   -1.8353  -46.9967    7.5409 O   0  0  0  0  0  0
   -3.0779  -46.8020    8.1149 C   0  0  0  0  0  0
   -3.8296  -45.6394    7.8956 C   0  0  0  0  0  0
   -5.0262  -45.4223    8.5999 C   0  0  0  0  0  0
   -5.5073  -46.3424    9.5506 C   0  0  0  0  0  0
   -4.8089  -47.5503    9.7107 C   0  0  0  0  0  0
   -3.6243  -47.7829    8.9833 C   0  0  0  0  0  0
   -0.7259  -52.6834    7.0132 H   0  0  0  0  0  0
   -3.1688  -52.3130    6.5336 H   0  0  0  0  0  0
   -3.9503  -50.0970    5.7132 H   0  0  0  0  0  0
   -2.3167  -48.2676    5.3103 H   0  0  0  0  0  0
    1.5762  -46.8720    5.0421 H   0  0  0  0  0  0
   -0.0206  -47.0020    4.4537 H   0  0  0  0  0  0
    0.7790  -46.2248    7.4123 H   0  0  0  0  0  0
    0.5355  -45.0820    6.1048 H   0  0  0  0  0  0
   -1.3660  -45.0124    7.3730 H   0  0  0  0  0  0
   -1.8551  -45.8017    5.8682 H   0  0  0  0  0  0
   -3.4904  -44.8978    7.1987 H   0  0  0  0  0  0
   -3.1348  -48.7276    9.1181 H   0  0  0  0  0  0
    1.2093  -50.5420    6.6402 N   0  0  0  0  0  0
    1.8675  -51.2355    6.9949 H   0  0  0  0  0  0
   -5.1837  -48.3108   10.3789 H   0  0  0  0  0  0
   -6.4131  -46.1484   10.1072 H   0  0  0  0  0  0
   -5.7129  -44.2863    8.3674 O   0  0  0  0  0  0
   -7.7261  -43.8156    4.7961 C   0  0  0  0  0  0
   -6.3235  -43.6263    4.7932 C   0  0  0  0  0  0
   -5.5955  -43.8095    5.9799 C   0  0  0  0  0  0
   -6.2930  -44.2211    7.1488 C   0  0  0  0  0  0
   -7.6714  -44.4473    7.1351 C   0  0  0  0  0  0
   -8.3986  -44.2049    5.9628 C   0  0  0  0  0  0
   -8.3522  -43.6141    3.9521 H   0  0  0  0  0  0
   -5.8031  -43.2897    3.9132 H   0  0  0  0  0  0
   -4.5424  -43.5802    5.9630 H   0  0  0  0  0  0
   -8.1735  -44.7515    8.0433 H   0  0  0  0  0  0
   -9.4696  -44.3329    5.9515 H   0  0  0  0  0  0
  1  2  2  0  0  0
  2  3  1  0  0  0
  2  4  1  0  0  0
  4 11  2  0  0  0
  4 34  1  0  0  0
  5  6  1  0  0  0
  5 10  2  0  0  0
  5 34  1  0  0  0
  6  7  2  0  0  0
  6 22  1  0  0  0
  7  8  1  0  0  0
  7 23  1  0  0  0
  8  9  2  0  0  0
  8 24  1  0  0  0
  9 10  1  0  0  0
  9 25  1  0  0  0
 10 11  1  0  0  0
 11 12  1  0  0  0
 12 26  1  0  0  0
 12 27  1  0  0  0
 12 13  1  0  0  0
 13 14  1  0  0  0
 13 28  1  0  0  0
 13 29  1  0  0  0
 14 15  1  0  0  0
 14 30  1  0  0  0
 14 31  1  0  0  0
 15 16  1  0  0  0
 16 17  1  0  0  0
 16 21  2  0  0  0
 17 18  2  0  0  0
 17 32  1  0  0  0
 18 19  1  0  0  0
 18 38  1  0  0  0
 19 20  2  0  0  0
 19 37  1  0  0  0
 20 21  1  0  0  0
 20 36  1  0  0  0
 21 33  1  0  0  0
 34 35  1  0  0  0
 38 42  1  0  0  0
 39 40  2  0  0  0
 39 44  1  0  0  0
 39 45  1  0  0  0
 40 41  1  0  0  0
 40 46  1  0  0  0
 41 42  2  0  0  0
 41 47  1  0  0  0
 42 43  1  0  0  0
 43 44  2  0  0  0
 43 48  1  0  0  0
 44 49  1  0  0  0
M  CHG  1   3  -1
M  END
> <s_m_entry_id>
79

> <s_m_entry_name>
MCL1_40.1

> <r_m_Molecular_weight>
386.4313

> <s_m_Source_Path>
C:\Users\yujiethinkpad\Desktop\05A\MCL1\original

> <s_m_Source_File>
MCL1_40.sdf

> <r_user_dG.exp>
-7.25302544244784

> <s_fepmapper_entryid>
23

> <i_fepmapper_bias>
0

> <i_fepmapper_affinity>
1

> <r_fepmapper_exp_dG>
-7.25302544245

> <i_fepmapper_unit>
1

> <i_m_Source_File_Index>
1

> <s_m_job_name>
glide-dock_SP_redock_1080

> <s_i_glide_gridfile>
glide-grid_MCL1

> <i_i_glide_lignum>
25

> <i_i_glide_rotatable_bonds>
8

> <r_i_docking_score>
-8.76470502029881

> <r_i_glide_ligand_efficiency>
-0.302231207596511

> <r_i_glide_ligand_efficiency_sa>
-0.928550023303877

> <r_i_glide_ligand_efficiency_ln>
-2.00689519590569

> <r_i_glide_gscore>
-8.76470502029881

> <r_i_glide_lipo>
-6.09002753650783

> <r_i_glide_hbond>
-0.2

> <r_i_glide_metal>
0

> <r_i_glide_rewards>
-1.67421252653777

> <r_i_glide_evdw>
-28.2458610534668

> <r_i_glide_ecoul>
-1.92547655105591

> <r_i_glide_erotb>
0.912416869947118

> <r_i_glide_esite>
-0.0117672918685988

> <r_i_glide_emodel>
-31.3254836259348

> <r_i_glide_energy>
-30.1713376045227

> <r_i_glide_einternal>
9.27027606964111

> <i_i_glide_confnum>
39

> <i_i_glide_posenum>
25

> <r_i_glide_eff_state_penalty>
0

> <r_glide_shape_similarity>
0.767572343349457

> <s_m_subgroup_title>
glide-dock_SP_redock_1080_lib1

> <s_m_subgroupid>
glide-dock_SP_redock_1080_lib1

> <b_m_subgroup_collapsed>
0

$$$$
