41
                    3D
 Schrodinger Suite 2021-2.
 49 52  0  0  1  0            999 V2000
    2.6495  -52.0818   10.2090 O   0  0  0  0  0  0
    2.8600  -51.5522    9.0878 C   0  0  0  0  0  0
    3.9946  -51.1443    8.7369 O   0  5  0  0  0  0
    1.6995  -51.3903    8.1557 C   0  0  0  0  0  0
   -0.5405  -51.5472    7.7056 C   0  0  0  0  0  0
   -1.9367  -51.7532    7.7534 C   0  0  0  0  0  0
   -2.7430  -51.3196    6.6849 C   0  0  0  0  0  0
   -2.1280  -50.7460    5.5628 C   0  0  0  0  0  0
   -0.7188  -50.6365    5.4953 C   0  0  0  0  0  0
    0.1196  -50.9613    6.5814 C   0  0  0  0  0  0
    1.5437  -50.8731    6.8804 C   0  0  0  0  0  0
    2.6837  -50.3265    6.0494 C   0  0  0  0  0  0
    3.1306  -48.9166    6.5086 C   0  0  0  0  0  0
    2.4591  -47.8110    5.6954 C   0  0  0  0  0  0
    1.1176  -48.2047    5.4801 O   0  0  0  0  0  0
    0.0670  -47.4013    5.8036 C   0  0  0  0  0  0
   -1.1860  -47.6854    5.2196 C   0  0  0  0  0  0
   -2.3431  -47.0117    5.6333 C   0  0  0  0  0  0
   -2.2692  -46.0292    6.6305 C   0  0  0  0  0  0
   -1.0338  -45.8060    7.2692 C   0  0  0  0  0  0
    0.1485  -46.3757    6.7515 C   0  0  0  0  0  0
   -2.3712  -52.2174    8.6261 H   0  0  0  0  0  0
   -3.8173  -51.4363    6.7248 H   0  0  0  0  0  0
   -2.7480  -50.4059    4.7510 H   0  0  0  0  0  0
   -0.2575  -50.2542    4.6083 H   0  0  0  0  0  0
    3.5346  -51.0037    6.1348 H   0  0  0  0  0  0
    2.4353  -50.3355    4.9890 H   0  0  0  0  0  0
    2.9301  -48.7847    7.5729 H   0  0  0  0  0  0
    4.2096  -48.8374    6.3937 H   0  0  0  0  0  0
    2.6329  -46.8251    6.1189 H   0  0  0  0  0  0
    2.8672  -47.7737    4.6917 H   0  0  0  0  0  0
   -1.2865  -48.3947    4.4187 H   0  0  0  0  0  0
    1.0713  -46.1336    7.2495 H   0  0  0  0  0  0
    0.4589  -51.8142    8.6202 N   0  0  0  0  0  0
    0.3687  -52.2261    9.5435 H   0  0  0  0  0  0
   -0.9691  -45.0468    8.0354 H   0  0  0  0  0  0
   -3.2800  -47.2151    5.1515 H   0  0  0  0  0  0
   -3.3003  -45.1435    6.7734 O   0  0  0  0  0  0
   -6.5905  -45.4254    9.3119 C   0  0  0  0  0  0
   -6.6344  -44.6083    8.1652 C   0  0  0  0  0  0
   -5.5399  -44.6061    7.2798 C   0  0  0  0  0  0
   -4.3958  -45.4041    7.5507 C   0  0  0  0  0  0
   -4.3754  -46.2638    8.6684 C   0  0  0  0  0  0
   -5.4884  -46.2872    9.5308 C   0  0  0  0  0  0
   -7.4165  -45.4134   10.0054 H   0  0  0  0  0  0
   -7.4865  -43.9699    7.9829 H   0  0  0  0  0  0
   -5.5418  -43.9426    6.4268 H   0  0  0  0  0  0
   -3.5135  -46.8775    8.8856 H   0  0  0  0  0  0
   -5.4925  -46.9785   10.3511 H   0  0  0  0  0  0
  1  2  2  0  0  0
  2  3  1  0  0  0
  2  4  1  0  0  0
  4 11  2  0  0  0
  4 34  1  0  0  0
  5  6  1  0  0  0
  5 10  2  0  0  0
  5 34  1  0  0  0
  6  7  2  0  0  0
  6 22  1  0  0  0
  7  8  1  0  0  0
  7 23  1  0  0  0
  8  9  2  0  0  0
  8 24  1  0  0  0
  9 10  1  0  0  0
  9 25  1  0  0  0
 10 11  1  0  0  0
 11 12  1  0  0  0
 12 26  1  0  0  0
 12 27  1  0  0  0
 12 13  1  0  0  0
 13 14  1  0  0  0
 13 28  1  0  0  0
 13 29  1  0  0  0
 14 15  1  0  0  0
 14 30  1  0  0  0
 14 31  1  0  0  0
 15 16  1  0  0  0
 16 17  1  0  0  0
 16 21  2  0  0  0
 17 18  2  0  0  0
 17 32  1  0  0  0
 18 19  1  0  0  0
 18 37  1  0  0  0
 19 20  2  0  0  0
 19 38  1  0  0  0
 20 21  1  0  0  0
 20 36  1  0  0  0
 21 33  1  0  0  0
 34 35  1  0  0  0
 38 42  1  0  0  0
 39 40  2  0  0  0
 39 44  1  0  0  0
 39 45  1  0  0  0
 40 41  1  0  0  0
 40 46  1  0  0  0
 41 42  2  0  0  0
 41 47  1  0  0  0
 42 43  1  0  0  0
 43 44  2  0  0  0
 43 48  1  0  0  0
 44 49  1  0  0  0
M  CHG  1   3  -1
M  END
> <s_m_entry_id>
109

> <s_m_entry_name>
MCL1_41.1

> <r_m_Molecular_weight>
386.4313

> <s_m_Source_Path>
C:\Users\yujiethinkpad\Desktop\05A\MCL1\original

> <s_m_Source_File>
MCL1_41.sdf

> <r_user_dG.exp>
-7.12924538792258

> <s_fepmapper_entryid>
28

> <i_fepmapper_bias>
0

> <i_fepmapper_affinity>
1

> <r_fepmapper_exp_dG>
-7.12924538792

> <i_fepmapper_unit>
1

> <i_m_Source_File_Index>
1

> <s_m_job_name>
glide-dock_SP_redock_1080

> <s_i_glide_gridfile>
glide-grid_MCL1

> <i_i_glide_lignum>
26

> <i_i_glide_rotatable_bonds>
8

> <r_i_docking_score>
-7.06341753541843

> <r_i_glide_ligand_efficiency>
-0.24356612191098

> <r_i_glide_ligand_efficiency_sa>
-0.748312293674225

> <r_i_glide_ligand_efficiency_ln>
-1.6173435027964

> <r_i_glide_gscore>
-7.06341753541843

> <r_i_glide_lipo>
-5.31862671953433

> <r_i_glide_hbond>
0

> <r_i_glide_metal>
0

> <r_i_glide_rewards>
-1.27041249883476

> <r_i_glide_evdw>
-30.6796016693115

> <r_i_glide_ecoul>
0.981232643127441

> <r_i_glide_erotb>
0.912416869947118

> <r_i_glide_esite>
0

> <r_i_glide_emodel>
-20.4217224703281

> <r_i_glide_energy>
-29.6983690261841

> <r_i_glide_einternal>
3.88596510887146

> <i_i_glide_confnum>
41

> <i_i_glide_posenum>
176

> <r_i_glide_eff_state_penalty>
0

> <r_glide_shape_similarity>
0.694490134716034

> <s_m_subgroup_title>
glide-dock_SP_redock_1080_lib1

> <s_m_subgroupid>
glide-dock_SP_redock_1080_lib1

> <b_m_subgroup_collapsed>
0

$$$$
