49
                    3D
 Schrodinger Suite 2021-2.
 41 43  0  0  1  0            999 V2000
    3.2598  -47.4892    6.7539 O   0  0  0  0  0  0
    3.1094  -48.7068    6.5229 C   0  0  0  0  0  0
    4.0655  -49.5093    6.4904 O   0  5  0  0  0  0
    1.7446  -49.1960    6.3349 C   0  0  0  0  0  0
    0.1518  -50.8078    6.5053 C   0  0  0  0  0  0
   -0.5794  -51.9912    6.7331 C   0  0  0  0  0  0
   -1.9767  -51.9914    6.5691 C   0  0  0  0  0  0
   -2.6242  -50.8050    6.1857 C   0  0  0  0  0  0
   -1.8753  -49.6330    5.9539 C   0  0  0  0  0  0
   -0.4654  -49.5846    6.1009 C   0  0  0  0  0  0
    0.5762  -48.5799    5.9518 C   0  0  0  0  0  0
    0.4654  -47.1501    5.4652 C   0  0  0  0  0  0
    0.3712  -46.0975    6.5834 C   0  0  0  0  0  0
   -0.9164  -46.1909    7.4049 C   0  0  0  0  0  0
   -2.0764  -45.6548    6.7839 O   0  0  0  0  0  0
   -3.2448  -45.7598    7.5116 C   0  0  0  0  0  0
   -4.3664  -45.0061    7.1024 C   0  0  0  0  0  0
   -5.5400  -44.9820    7.8916 C   0  0  0  0  0  0
   -6.7646  -44.2081    7.4308 C   0  0  0  0  0  0
   -5.5430  -45.6790    9.1167 C   0  0  0  0  0  0
   -6.7449  -45.4004   10.2972 Cl  0  0  0  0  0  0
   -4.5143  -46.5657    9.4454 C   0  0  0  0  0  0
   -3.3704  -46.6044    8.6473 C   0  0  0  0  0  0
   -0.0685  -52.8946    7.0352 H   0  0  0  0  0  0
   -2.5516  -52.8896    6.7439 H   0  0  0  0  0  0
   -3.6980  -50.7882    6.0656 H   0  0  0  0  0  0
   -2.7383  -48.2307    5.5176 Cl  0  0  0  0  0  0
   -0.3834  -47.0368    4.7920 H   0  0  0  0  0  0
    1.3319  -46.9110    4.8475 H   0  0  0  0  0  0
    0.4688  -45.0999    6.1613 H   0  0  0  0  0  0
    1.2184  -46.2090    7.2581 H   0  0  0  0  0  0
   -0.7642  -45.7199    8.3772 H   0  0  0  0  0  0
   -1.1406  -47.2423    7.5507 H   0  0  0  0  0  0
   -4.3049  -44.4251    6.1949 H   0  0  0  0  0  0
   -6.5836  -43.7009    6.4848 H   0  0  0  0  0  0
   -7.0940  -43.4820    8.1753 H   0  0  0  0  0  0
   -7.5898  -44.9018    7.2749 H   0  0  0  0  0  0
   -2.5867  -47.2552    8.9938 H   0  0  0  0  0  0
   -4.5559  -47.1463   10.3524 H   0  0  0  0  0  0
    1.4977  -50.5257    6.6054 N   0  0  0  0  0  0
    2.2528  -51.1321    6.8986 H   0  0  0  0  0  0
  1  2  2  0  0  0
  2  3  1  0  0  0
  2  4  1  0  0  0
  4 11  2  0  0  0
  4 40  1  0  0  0
  5  6  1  0  0  0
  5 10  2  0  0  0
  5 40  1  0  0  0
  6  7  2  0  0  0
  6 24  1  0  0  0
  7  8  1  0  0  0
  7 25  1  0  0  0
  8  9  2  0  0  0
  8 26  1  0  0  0
  9 10  1  0  0  0
  9 27  1  0  0  0
 10 11  1  0  0  0
 11 12  1  0  0  0
 12 28  1  0  0  0
 12 29  1  0  0  0
 12 13  1  0  0  0
 13 14  1  0  0  0
 13 30  1  0  0  0
 13 31  1  0  0  0
 14 15  1  0  0  0
 14 32  1  0  0  0
 14 33  1  0  0  0
 15 16  1  0  0  0
 16 17  1  0  0  0
 16 23  2  0  0  0
 17 18  2  0  0  0
 17 34  1  0  0  0
 18 19  1  0  0  0
 18 20  1  0  0  0
 19 35  1  0  0  0
 19 36  1  0  0  0
 19 37  1  0  0  0
 20 21  1  0  0  0
 20 22  2  0  0  0
 22 23  1  0  0  0
 22 39  1  0  0  0
 23 38  1  0  0  0
 40 41  1  0  0  0
M  CHG  1   3  -1
M  END
> <s_m_entry_id>
97

> <s_m_entry_name>
MCL1_49.1

> <r_m_Molecular_weight>
377.25027

> <s_m_Source_Path>
C:\Users\yujiethinkpad\Desktop\05A\MCL1\original

> <s_m_Source_File>
MCL1_49.sdf

> <r_user_dG.exp>
-8.36145743731744

> <s_fepmapper_entryid>
26

> <i_fepmapper_bias>
0

> <i_fepmapper_affinity>
1

> <r_fepmapper_exp_dG>
-8.36145743732

> <i_fepmapper_unit>
1

> <i_m_Source_File_Index>
1

> <s_m_job_name>
glide-dock_SP_redock_1080

> <s_i_glide_gridfile>
glide-grid_MCL1

> <i_i_glide_lignum>
34

> <i_i_glide_rotatable_bonds>
6

> <r_i_docking_score>
-8.06990193664917

> <r_i_glide_ligand_efficiency>
-0.322796077465967

> <r_i_glide_ligand_efficiency_sa>
-0.943861455323296

> <r_i_glide_ligand_efficiency_ln>
-1.91280859443197

> <r_i_glide_gscore>
-8.06990193664917

> <r_i_glide_lipo>
-5.0788439650337

> <r_i_glide_hbond>
-0.2

> <r_i_glide_metal>
0

> <r_i_glide_rewards>
-1.63420620830349

> <r_i_glide_evdw>
-30.098274230957

> <r_i_glide_ecoul>
-2.06609678268433

> <r_i_glide_erotb>
0.680424897087132

> <r_i_glide_esite>
-0.0224484314486071

> <r_i_glide_emodel>
-38.100720736976

> <r_i_glide_energy>
-32.1643710136414

> <r_i_glide_einternal>
9.8300952911377

> <i_i_glide_confnum>
196

> <i_i_glide_posenum>
175

> <r_i_glide_eff_state_penalty>
0

> <r_glide_shape_similarity>
0.90231841802597

> <s_m_subgroup_title>
glide-dock_SP_redock_1080_lib1

> <s_m_subgroupid>
glide-dock_SP_redock_1080_lib1

> <b_m_subgroup_collapsed>
0

$$$$
