51
                    3D
 Schrodinger Suite 2021-2.
 44 47  0  0  1  0            999 V2000
    3.2599  -47.5037    6.7538 O   0  0  0  0  0  0
    3.1071  -48.7273    6.5341 C   0  0  0  0  0  0
    4.0618  -49.5368    6.5271 O   0  5  0  0  0  0
    1.7324  -49.2142    6.3302 C   0  0  0  0  0  0
    0.0998  -50.8051    6.4595 C   0  0  0  0  0  0
   -0.6629  -51.9776    6.6604 C   0  0  0  0  0  0
   -2.0643  -51.9402    6.5020 C   0  0  0  0  0  0
   -2.6891  -50.7323    6.1438 C   0  0  0  0  0  0
   -1.9136  -49.5669    5.9415 C   0  0  0  0  0  0
   -0.4955  -49.5579    6.0816 C   0  0  0  0  0  0
    0.5708  -48.5707    5.9513 C   0  0  0  0  0  0
    0.4654  -47.1224    5.4983 C   0  0  0  0  0  0
    0.3491  -46.0841    6.6456 C   0  0  0  0  0  0
   -0.9426  -46.1971    7.4856 C   0  0  0  0  0  0
   -2.1112  -45.6018    6.9238 O   0  0  0  0  0  0
   -3.3148  -45.7237    7.6131 C   0  0  0  0  0  0
   -5.8062  -45.7421    9.0450 C   0  0  0  0  0  0
   -4.7258  -46.5398    9.4737 C   0  0  0  0  0  0
   -3.5026  -46.5451    8.7570 C   0  0  0  0  0  0
   -0.1732  -52.8996    6.9378 H   0  0  0  0  0  0
   -2.6578  -52.8290    6.6550 H   0  0  0  0  0  0
   -3.7642  -50.6955    6.0339 H   0  0  0  0  0  0
   -2.7406  -48.1228    5.5496 Cl  0  0  0  0  0  0
    1.3468  -46.8732    4.9044 H   0  0  0  0  0  0
   -0.3628  -47.0052    4.8008 H   0  0  0  0  0  0
    1.1959  -46.2119    7.3192 H   0  0  0  0  0  0
    0.4596  -45.0798    6.2474 H   0  0  0  0  0  0
   -1.1477  -47.2569    7.5526 H   0  0  0  0  0  0
   -0.7770  -45.7981    8.4891 H   0  0  0  0  0  0
   -2.7035  -47.1565    9.1402 H   0  0  0  0  0  0
   -5.6873  -45.0084    7.8404 C   0  0  0  0  0  0
   -4.4428  -45.0062    7.1382 C   0  0  0  0  0  0
   -4.3436  -44.2639    5.9239 C   0  0  0  0  0  0
   -5.4918  -43.7012    5.3261 C   0  0  0  0  0  0
   -6.7430  -43.8068    5.9633 C   0  0  0  0  0  0
   -6.8268  -44.3894    7.2581 C   0  0  0  0  0  0
   -3.4237  -44.2106    5.3656 H   0  0  0  0  0  0
   -5.4182  -43.2129    4.3670 H   0  0  0  0  0  0
   -7.6201  -43.3850    5.4934 H   0  0  0  0  0  0
   -7.7801  -44.4339    7.7684 H   0  0  0  0  0  0
   -4.8308  -47.1594   10.3466 H   0  0  0  0  0  0
   -6.7413  -45.7708    9.5829 H   0  0  0  0  0  0
    1.4596  -50.5577    6.5596 N   0  0  0  0  0  0
    2.1975  -51.2062    6.8175 H   0  0  0  0  0  0
  1  2  2  0  0  0
  2  3  1  0  0  0
  2  4  1  0  0  0
  4 11  2  0  0  0
  4 43  1  0  0  0
  5  6  1  0  0  0
  5 10  2  0  0  0
  5 43  1  0  0  0
  6  7  2  0  0  0
  6 20  1  0  0  0
  7  8  1  0  0  0
  7 21  1  0  0  0
  8  9  2  0  0  0
  8 22  1  0  0  0
  9 10  1  0  0  0
  9 23  1  0  0  0
 10 11  1  0  0  0
 11 12  1  0  0  0
 12 24  1  0  0  0
 12 25  1  0  0  0
 12 13  1  0  0  0
 13 14  1  0  0  0
 13 26  1  0  0  0
 13 27  1  0  0  0
 14 15  1  0  0  0
 14 28  1  0  0  0
 14 29  1  0  0  0
 15 16  1  0  0  0
 16 19  2  0  0  0
 16 32  1  0  0  0
 17 18  2  0  0  0
 17 31  1  0  0  0
 17 42  1  0  0  0
 18 19  1  0  0  0
 18 41  1  0  0  0
 19 30  1  0  0  0
 31 32  2  0  0  0
 31 36  1  0  0  0
 32 33  1  0  0  0
 33 34  2  0  0  0
 33 37  1  0  0  0
 34 35  1  0  0  0
 34 38  1  0  0  0
 35 36  2  0  0  0
 35 39  1  0  0  0
 36 40  1  0  0  0
 43 44  1  0  0  0
M  CHG  1   3  -1
M  END
> <s_m_entry_id>
77

> <s_m_entry_name>
MCL1_51.1

> <r_m_Molecular_weight>
378.83869

> <s_m_Source_Path>
C:\Users\yujiethinkpad\Desktop\05A\MCL1\original

> <s_m_Source_File>
MCL1_51.sdf

> <r_user_dG.exp>
-8.44846494324944

> <s_fepmapper_entryid>
12

> <i_fepmapper_bias>
0

> <i_fepmapper_affinity>
1

> <r_fepmapper_exp_dG>
-8.44846494325

> <i_fepmapper_unit>
1

> <i_m_Source_File_Index>
1

> <s_m_job_name>
glide-dock_SP_redock_1080

> <s_i_glide_gridfile>
glide-grid_MCL1

> <i_i_glide_lignum>
36

> <i_i_glide_rotatable_bonds>
6

> <r_i_docking_score>
-8.9130393714169

> <r_i_glide_ligand_efficiency>
-0.330112569311737

> <r_i_glide_ligand_efficiency_sa>
-0.990337706847214

> <r_i_glide_ligand_efficiency_ln>
-2.0748086227276

> <r_i_glide_gscore>
-8.9130393714169

> <r_i_glide_lipo>
-5.62643047935153

> <r_i_glide_hbond>
-0.2

> <r_i_glide_metal>
0

> <r_i_glide_rewards>
-1.72617286363636

> <r_i_glide_evdw>
-30.0322189331055

> <r_i_glide_ecoul>
-2.51593494415283

> <r_i_glide_erotb>
0.540262106106263

> <r_i_glide_esite>
-0.0216969462570685

> <r_i_glide_emodel>
-39.9884291561484

> <r_i_glide_energy>
-32.5481538772583

> <r_i_glide_einternal>
9.2060079574585

> <i_i_glide_confnum>
73

> <i_i_glide_posenum>
78

> <r_i_glide_eff_state_penalty>
0

> <r_glide_shape_similarity>
0.868768632411957

> <s_m_subgroup_title>
glide-dock_SP_redock_1080_lib1

> <s_m_subgroupid>
glide-dock_SP_redock_1080_lib1

> <b_m_subgroup_collapsed>
0

$$$$
