54
                    3D
 Schrodinger Suite 2021-2.
 44 47  0  0  1  0            999 V2000
    3.2599  -47.4948    6.7559 O   0  0  0  0  0  0
    3.1003  -48.7171    6.5350 C   0  0  0  0  0  0
    4.0479  -49.5372    6.5214 O   0  5  0  0  0  0
    1.7208  -49.1798    6.3314 C   0  0  0  0  0  0
    0.0370  -50.6941    6.4945 C   0  0  0  0  0  0
   -0.7751  -51.7889    6.8278 C   0  0  0  0  0  0
   -2.1743  -51.6474    6.7871 C   0  0  0  0  0  0
   -2.7522  -50.4650    6.2518 C   0  0  0  0  0  0
   -1.9243  -49.3789    5.8705 C   0  0  0  0  0  0
   -0.5133  -49.4463    6.0573 C   0  0  0  0  0  0
    0.5790  -48.5088    5.9482 C   0  0  0  0  0  0
    0.4876  -47.0754    5.4694 C   0  0  0  0  0  0
    0.3174  -46.0566    6.6091 C   0  0  0  0  0  0
   -1.0045  -46.2019    7.3947 C   0  0  0  0  0  0
   -2.2020  -45.7615    6.7532 O   0  0  0  0  0  0
   -3.3577  -45.7805    7.5376 C   0  0  0  0  0  0
   -5.7352  -45.7952    9.1457 C   0  0  0  0  0  0
   -4.6417  -46.6030    9.4985 C   0  0  0  0  0  0
   -3.4737  -46.6003    8.7015 C   0  0  0  0  0  0
   -0.3365  -52.6963    7.2117 H   0  0  0  0  0  0
   -3.1321  -52.8873    7.5339 Cl  0  0  0  0  0  0
   -3.8272  -50.3702    6.1900 H   0  0  0  0  0  0
   -2.3802  -48.4671    5.5103 H   0  0  0  0  0  0
    1.3820  -46.8219    4.8979 H   0  0  0  0  0  0
   -0.3330  -46.9919    4.7532 H   0  0  0  0  0  0
    1.1373  -46.2060    7.3099 H   0  0  0  0  0  0
    0.4637  -45.0478    6.2284 H   0  0  0  0  0  0
   -1.1474  -47.2663    7.5491 H   0  0  0  0  0  0
   -0.8958  -45.7082    8.3651 H   0  0  0  0  0  0
   -2.6854  -47.2551    9.0195 H   0  0  0  0  0  0
   -5.6879  -45.0437    7.9502 C   0  0  0  0  0  0
   -4.4945  -45.0061    7.1510 C   0  0  0  0  0  0
   -4.4929  -44.2213    5.9508 C   0  0  0  0  0  0
   -5.6988  -43.6625    5.4764 C   0  0  0  0  0  0
   -6.8953  -43.8073    6.2174 C   0  0  0  0  0  0
   -6.8768  -44.4362    7.4863 C   0  0  0  0  0  0
   -3.6082  -44.2049    5.3260 H   0  0  0  0  0  0
   -5.7086  -43.1533    4.5235 H   0  0  0  0  0  0
   -7.8147  -43.3876    5.8377 H   0  0  0  0  0  0
   -7.7905  -44.5040    8.0586 H   0  0  0  0  0  0
   -4.7049  -47.2552   10.3520 H   0  0  0  0  0  0
   -6.6422  -45.8391    9.7358 H   0  0  0  0  0  0
    1.4073  -50.5090    6.5568 N   0  0  0  0  0  0
    2.1185  -51.1809    6.8258 H   0  0  0  0  0  0
  1  2  2  0  0  0
  2  3  1  0  0  0
  2  4  1  0  0  0
  4 11  2  0  0  0
  4 43  1  0  0  0
  5  6  1  0  0  0
  5 10  2  0  0  0
  5 43  1  0  0  0
  6  7  2  0  0  0
  6 20  1  0  0  0
  7  8  1  0  0  0
  7 21  1  0  0  0
  8  9  2  0  0  0
  8 22  1  0  0  0
  9 10  1  0  0  0
  9 23  1  0  0  0
 10 11  1  0  0  0
 11 12  1  0  0  0
 12 24  1  0  0  0
 12 25  1  0  0  0
 12 13  1  0  0  0
 13 14  1  0  0  0
 13 26  1  0  0  0
 13 27  1  0  0  0
 14 15  1  0  0  0
 14 28  1  0  0  0
 14 29  1  0  0  0
 15 16  1  0  0  0
 16 19  2  0  0  0
 16 32  1  0  0  0
 17 18  2  0  0  0
 17 31  1  0  0  0
 17 42  1  0  0  0
 18 19  1  0  0  0
 18 41  1  0  0  0
 19 30  1  0  0  0
 31 32  2  0  0  0
 31 36  1  0  0  0
 32 33  1  0  0  0
 33 34  2  0  0  0
 33 37  1  0  0  0
 34 35  1  0  0  0
 34 38  1  0  0  0
 35 36  2  0  0  0
 35 39  1  0  0  0
 36 40  1  0  0  0
 43 44  1  0  0  0
M  CHG  1   3  -1
M  END
> <s_m_entry_id>
78

> <s_m_entry_name>
MCL1_54.1

> <r_m_Molecular_weight>
378.83869

> <s_m_Source_Path>
C:\Users\yujiethinkpad\Desktop\05A\MCL1\original

> <s_m_Source_File>
MCL1_54.sdf

> <r_user_dG.exp>
-9.77997627425646

> <s_fepmapper_entryid>
19

> <i_fepmapper_bias>
0

> <i_fepmapper_affinity>
1

> <r_fepmapper_exp_dG>
-9.77997627426

> <i_fepmapper_unit>
1

> <i_m_Source_File_Index>
1

> <s_m_job_name>
glide-dock_SP_redock_1080

> <s_i_glide_gridfile>
glide-grid_MCL1

> <i_i_glide_lignum>
39

> <i_i_glide_rotatable_bonds>
6

> <r_i_docking_score>
-8.8920587362132

> <r_i_glide_ligand_efficiency>
-0.329335508748637

> <r_i_glide_ligand_efficiency_sa>
-0.988006525160476

> <r_i_glide_ligand_efficiency_ln>
-2.06992467674499

> <r_i_glide_gscore>
-8.8920587362132

> <r_i_glide_lipo>
-5.45715940792952

> <r_i_glide_hbond>
-0.2

> <r_i_glide_metal>
0

> <r_i_glide_rewards>
-1.72617286363636

> <r_i_glide_evdw>
-32.4557113647461

> <r_i_glide_ecoul>
-2.69836258888245

> <r_i_glide_erotb>
0.540262106106263

> <r_i_glide_esite>
-0.0214486141839136

> <r_i_glide_emodel>
-41.9692753102621

> <r_i_glide_energy>
-35.1540739536285

> <r_i_glide_einternal>
5.42647171020508

> <i_i_glide_confnum>
70

> <i_i_glide_posenum>
333

> <r_i_glide_eff_state_penalty>
0

> <r_glide_shape_similarity>
0.866965472698212

> <s_m_subgroup_title>
glide-dock_SP_redock_1080_lib1

> <s_m_subgroupid>
glide-dock_SP_redock_1080_lib1

> <b_m_subgroup_collapsed>
0

$$$$
