56
                    3D
 Schrodinger Suite 2021-2.
 47 49  0  0  1  0            999 V2000
    3.2602  -47.5613    6.7537 O   0  0  0  0  0  0
    3.0898  -48.7828    6.4934 C   0  0  0  0  0  0
    4.0637  -49.5690    6.3760 O   0  5  0  0  0  0
    1.6885  -49.2560    6.3099 C   0  0  0  0  0  0
   -0.1404  -50.6654    6.4143 C   0  0  0  0  0  0
   -1.0942  -51.7074    6.6066 C   0  0  0  0  0  0
   -2.4670  -51.4561    6.3725 C   0  0  0  0  0  0
   -2.8898  -50.1709    5.9523 C   0  0  0  0  0  0
   -1.9388  -49.1485    5.7521 C   0  0  0  0  0  0
   -0.5614  -49.3666    5.9858 C   0  0  0  0  0  0
    0.6006  -48.5095    5.9015 C   0  0  0  0  0  0
    0.6012  -47.0642    5.4835 C   0  0  0  0  0  0
    0.4557  -46.1054    6.6881 C   0  0  0  0  0  0
   -0.9293  -46.2040    7.3565 C   0  0  0  0  0  0
   -1.9287  -45.8068    6.4402 O   0  0  0  0  0  0
   -3.1558  -45.4258    6.9355 C   0  0  0  0  0  0
   -3.6970  -45.8983    8.1610 C   0  0  0  0  0  0
   -5.0197  -45.5135    8.5498 C   0  0  0  0  0  0
   -5.5531  -46.0521    9.8674 C   0  0  0  0  0  0
   -5.8281  -44.6915    7.6952 C   0  0  0  0  0  0
   -7.5255  -44.4921    8.0633 Cl  0  0  0  0  0  0
   -5.2809  -44.2110    6.4568 C   0  0  0  0  0  0
   -6.1595  -43.5327    5.4073 C   0  0  0  0  0  0
   -3.9402  -44.6024    6.1048 C   0  0  0  0  0  0
   -0.7695  -52.6804    6.9335 H   0  0  0  0  0  0
   -3.1910  -52.2438    6.5141 H   0  0  0  0  0  0
   -3.9351  -49.9772    5.7704 H   0  0  0  0  0  0
   -2.2742  -48.1823    5.4127 H   0  0  0  0  0  0
   -0.2066  -46.9014    4.7698 H   0  0  0  0  0  0
    1.5086  -46.8172    4.9335 H   0  0  0  0  0  0
    0.6179  -45.0769    6.3475 H   0  0  0  0  0  0
    1.2329  -46.2848    7.4298 H   0  0  0  0  0  0
   -0.9679  -45.6198    8.2791 H   0  0  0  0  0  0
   -1.1384  -47.2452    7.5541 H   0  0  0  0  0  0
   -3.1225  -46.5555    8.7873 H   0  0  0  0  0  0
   -4.8343  -46.7230   10.3479 H   0  0  0  0  0  0
   -6.4733  -46.6082    9.7132 H   0  0  0  0  0  0
   -5.7660  -45.2302   10.5517 H   0  0  0  0  0  0
   -5.6585  -43.5069    4.4434 H   0  0  0  0  0  0
   -7.0809  -44.0965    5.2757 H   0  0  0  0  0  0
   -6.4221  -42.5180    5.6754 H   0  0  0  0  0  0
   -3.5394  -44.2756    5.1515 H   0  0  0  0  0  0
    2.1151  -51.7151    6.9440 C   0  0  0  0  0  0
    1.5116  -52.5836    7.1882 H   0  0  0  0  0  0
    2.7677  -51.9614    6.1074 H   0  0  0  0  0  0
    2.7269  -51.4470    7.8067 H   0  0  0  0  0  0
    1.2618  -50.5901    6.5529 N   0  0  0  0  0  0
  1  2  2  0  0  0
  2  3  1  0  0  0
  2  4  1  0  0  0
  4 11  2  0  0  0
  4 47  1  0  0  0
  5  6  1  0  0  0
  5 10  2  0  0  0
  5 47  1  0  0  0
  6  7  2  0  0  0
  6 25  1  0  0  0
  7  8  1  0  0  0
  7 26  1  0  0  0
  8  9  2  0  0  0
  8 27  1  0  0  0
  9 10  1  0  0  0
  9 28  1  0  0  0
 10 11  1  0  0  0
 11 12  1  0  0  0
 12 29  1  0  0  0
 12 30  1  0  0  0
 12 13  1  0  0  0
 13 14  1  0  0  0
 13 31  1  0  0  0
 13 32  1  0  0  0
 14 15  1  0  0  0
 14 33  1  0  0  0
 14 34  1  0  0  0
 15 16  1  0  0  0
 16 17  1  0  0  0
 16 24  2  0  0  0
 17 18  2  0  0  0
 17 35  1  0  0  0
 18 19  1  0  0  0
 18 20  1  0  0  0
 19 36  1  0  0  0
 19 37  1  0  0  0
 19 38  1  0  0  0
 20 21  1  0  0  0
 20 22  2  0  0  0
 22 23  1  0  0  0
 22 24  1  0  0  0
 23 39  1  0  0  0
 23 40  1  0  0  0
 23 41  1  0  0  0
 24 42  1  0  0  0
 43 44  1  0  0  0
 43 45  1  0  0  0
 43 46  1  0  0  0
 43 47  1  0  0  0
M  CHG  1   3  -1
M  END
> <s_m_entry_id>
88

> <s_m_entry_name>
MCL1_56.1

> <r_m_Molecular_weight>
370.85942

> <s_m_Source_Path>
C:\Users\yujiethinkpad\Desktop\05A\MCL1\original

> <s_m_Source_File>
MCL1_56.sdf

> <r_user_dG.exp>
-9.25808309585768

> <s_fepmapper_entryid>
35

> <i_fepmapper_bias>
0

> <i_fepmapper_affinity>
1

> <r_fepmapper_exp_dG>
-9.25808309586

> <i_fepmapper_unit>
1

> <i_m_Source_File_Index>
1

> <s_m_job_name>
glide-dock_SP_redock_1080

> <s_i_glide_gridfile>
glide-grid_MCL1

> <i_i_glide_lignum>
40

> <i_i_glide_rotatable_bonds>
6

> <r_i_docking_score>
-8.35274972224444

> <r_i_glide_ligand_efficiency>
-0.321259604701709

> <r_i_glide_ligand_efficiency_sa>
-0.95173031483331

> <r_i_glide_ligand_efficiency_ln>
-1.9616158646618

> <r_i_glide_gscore>
-8.35274972224444

> <r_i_glide_lipo>
-5.04773919237606

> <r_i_glide_hbond>
-0.2

> <r_i_glide_metal>
0

> <r_i_glide_rewards>
-1.860900102417

> <r_i_glide_evdw>
-29.6326656341553

> <r_i_glide_ecoul>
-2.98114895820618

> <r_i_glide_erotb>
0.70154775679004

> <r_i_glide_esite>
-0.016852558802729

> <r_i_glide_emodel>
-49.9836128270186

> <r_i_glide_energy>
-32.6138145923615

> <r_i_glide_einternal>
3.52143788337708

> <i_i_glide_confnum>
275

> <i_i_glide_posenum>
366

> <r_i_glide_eff_state_penalty>
0

> <r_glide_shape_similarity>
0.9466712474823

> <s_m_subgroup_title>
glide-dock_SP_redock_1080_lib1

> <s_m_subgroupid>
glide-dock_SP_redock_1080_lib1

> <b_m_subgroup_collapsed>
0

$$$$
