57
                    3D
 Schrodinger Suite 2021-2.
 47 50  0  0  1  0            999 V2000
    3.6962  -48.9916    6.6134 O   0  0  0  0  0  0
    2.6966  -48.2332    6.5745 C   0  0  0  0  0  0
    2.8464  -47.0041    6.7512 O   0  5  0  0  0  0
    1.3064  -48.7707    6.3511 C   0  0  0  0  0  0
   -0.3157  -50.3992    6.3178 C   0  0  0  0  0  0
   -1.0956  -51.5782    6.4438 C   0  0  0  0  0  0
   -2.4980  -51.5044    6.3089 C   0  0  0  0  0  0
   -3.1042  -50.2666    6.0172 C   0  0  0  0  0  0
   -2.3271  -49.0980    5.9103 C   0  0  0  0  0  0
   -0.9193  -49.1245    6.0885 C   0  0  0  0  0  0
    0.0978  -48.0995    6.1665 C   0  0  0  0  0  0
   -0.2040  -46.5926    6.1541 C   0  0  0  0  0  0
   -0.6461  -45.9823    7.5189 C   0  0  0  0  0  0
   -2.0598  -46.3385    8.0087 C   0  0  0  0  0  0
   -3.0101  -45.6009    7.2440 O   0  0  0  0  0  0
   -4.2785  -45.4065    7.7606 C   0  0  0  0  0  0
   -6.9520  -45.0054    8.6423 C   0  0  0  0  0  0
   -6.0522  -45.7561    9.4316 C   0  0  0  0  0  0
   -4.7417  -45.9932    8.9722 C   0  0  0  0  0  0
   -0.6312  -52.5316    6.6479 H   0  0  0  0  0  0
   -3.0996  -52.3969    6.3917 H   0  0  0  0  0  0
   -4.1754  -50.2082    5.8905 H   0  0  0  0  0  0
   -2.8177  -48.1525    5.7297 H   0  0  0  0  0  0
    0.6318  -46.0274    5.7428 H   0  0  0  0  0  0
   -1.0473  -46.4197    5.5089 H   0  0  0  0  0  0
    0.1228  -46.2003    8.2536 H   0  0  0  0  0  0
   -0.7024  -44.8999    7.5514 H   0  0  0  0  0  0
   -2.2676  -47.4057    7.9515 H   0  0  0  0  0  0
   -2.1264  -46.0353    9.0518 H   0  0  0  0  0  0
   -4.1044  -46.6111    9.5851 H   0  0  0  0  0  0
   -6.5335  -44.4849    7.3939 C   0  0  0  0  0  0
   -5.1741  -44.6116    6.9906 C   0  0  0  0  0  0
   -4.7397  -44.0883    5.7457 C   0  0  0  0  0  0
   -5.6698  -43.4905    4.8757 C   0  0  0  0  0  0
   -7.0328  -43.4088    5.2453 C   0  0  0  0  0  0
   -7.4654  -43.8847    6.5054 C   0  0  0  0  0  0
   -3.7192  -44.2103    5.4119 H   0  0  0  0  0  0
   -5.3457  -43.1237    3.9120 H   0  0  0  0  0  0
   -7.7584  -43.0074    4.5538 H   0  0  0  0  0  0
   -8.5109  -43.8161    6.7560 H   0  0  0  0  0  0
   -6.3880  -46.1764   10.3661 H   0  0  0  0  0  0
   -7.9712  -44.8838    8.9754 H   0  0  0  0  0  0
    2.0270  -51.2392    6.5853 C   0  0  0  0  0  0
    2.7587  -51.2095    5.7801 H   0  0  0  0  0  0
    2.5332  -51.1244    7.5415 H   0  0  0  0  0  0
    1.5519  -52.2145    6.5645 H   0  0  0  0  0  0
    1.0560  -50.1679    6.4001 N   0  0  0  0  0  0
  1  2  2  0  0  0
  2  3  1  0  0  0
  2  4  1  0  0  0
  4 11  2  0  0  0
  4 47  1  0  0  0
  5  6  1  0  0  0
  5 10  2  0  0  0
  5 47  1  0  0  0
  6  7  2  0  0  0
  6 20  1  0  0  0
  7  8  1  0  0  0
  7 21  1  0  0  0
  8  9  2  0  0  0
  8 22  1  0  0  0
  9 10  1  0  0  0
  9 23  1  0  0  0
 10 11  1  0  0  0
 11 12  1  0  0  0
 12 24  1  0  0  0
 12 25  1  0  0  0
 12 13  1  0  0  0
 13 14  1  0  0  0
 13 26  1  0  0  0
 13 27  1  0  0  0
 14 15  1  0  0  0
 14 28  1  0  0  0
 14 29  1  0  0  0
 15 16  1  0  0  0
 16 19  2  0  0  0
 16 32  1  0  0  0
 17 18  2  0  0  0
 17 31  1  0  0  0
 17 42  1  0  0  0
 18 19  1  0  0  0
 18 41  1  0  0  0
 19 30  1  0  0  0
 31 32  2  0  0  0
 31 36  1  0  0  0
 32 33  1  0  0  0
 33 34  2  0  0  0
 33 37  1  0  0  0
 34 35  1  0  0  0
 34 38  1  0  0  0
 35 36  2  0  0  0
 35 39  1  0  0  0
 36 40  1  0  0  0
 43 44  1  0  0  0
 43 45  1  0  0  0
 43 46  1  0  0  0
 43 47  1  0  0  0
M  CHG  1   3  -1
M  END
> <s_m_entry_id>
69

> <s_m_entry_name>
MCL1_57.1

> <r_m_Molecular_weight>
358.42075

> <s_m_Source_Path>
C:\Users\yujiethinkpad\Desktop\05A\MCL1\original

> <s_m_Source_File>
MCL1_57.sdf

> <r_user_dG.exp>
-9.03887132268158

> <s_fepmapper_entryid>
34

> <i_fepmapper_bias>
0

> <i_fepmapper_affinity>
1

> <r_fepmapper_exp_dG>
-9.03887132268

> <i_fepmapper_unit>
1

> <i_m_Source_File_Index>
1

> <s_m_job_name>
glide-dock_SP_redock_1080

> <s_i_glide_gridfile>
glide-grid_MCL1

> <i_i_glide_lignum>
41

> <i_i_glide_rotatable_bonds>
6

> <r_i_docking_score>
-9.1758717046185

> <r_i_glide_ligand_efficiency>
-0.339847100171055

> <r_i_glide_ligand_efficiency_sa>
-1.01954129939309

> <r_i_glide_ligand_efficiency_ln>
-2.13599165676727

> <r_i_glide_gscore>
-9.1758717046185

> <r_i_glide_lipo>
-5.6189565538508

> <r_i_glide_hbond>
-0.235463065869712

> <r_i_glide_metal>
0

> <r_i_glide_rewards>
-2.14006830836785

> <r_i_glide_evdw>
-30.0876655578613

> <r_i_glide_ecoul>
-1.82317054271698

> <r_i_glide_erotb>
0.596475082770476

> <r_i_glide_esite>
0

> <r_i_glide_emodel>
-36.8561542445551

> <r_i_glide_energy>
-31.9108361005783

> <r_i_glide_einternal>
2.93261408805847

> <i_i_glide_confnum>
58

> <i_i_glide_posenum>
54

> <r_i_glide_eff_state_penalty>
0

> <r_glide_shape_similarity>
0.830772459506989

> <s_m_subgroup_title>
glide-dock_SP_redock_1080_lib1

> <s_m_subgroupid>
glide-dock_SP_redock_1080_lib1

> <b_m_subgroup_collapsed>
0

$$$$
