58
                    3D
 Schrodinger Suite 2021-2.
 47 49  0  0  1  0            999 V2000
    3.2616  -47.6497    7.1133 O   0  0  0  0  0  0
    3.1097  -48.7881    6.6046 C   0  0  0  0  0  0
    4.0797  -49.5232    6.3141 O   0  5  0  0  0  0
    1.7166  -49.2091    6.3534 C   0  0  0  0  0  0
   -0.1459  -50.5351    6.3795 C   0  0  0  0  0  0
   -1.1500  -51.5189    6.5149 C   0  0  0  0  0  0
   -2.4903  -51.1401    6.2569 C   0  0  0  0  0  0
   -2.8509  -49.8412    5.8659 C   0  0  0  0  0  0
   -1.8483  -48.8932    5.6997 C   0  0  0  0  0  0
   -0.5000  -49.2100    5.9790 C   0  0  0  0  0  0
    0.6746  -48.4096    5.9512 C   0  0  0  0  0  0
    0.7032  -46.9637    5.5419 C   0  0  0  0  0  0
    0.4895  -46.0102    6.7377 C   0  0  0  0  0  0
   -0.9052  -46.0532    7.4102 C   0  0  0  0  0  0
   -1.9237  -45.8064    6.4543 O   0  0  0  0  0  0
   -3.1559  -45.4323    6.9393 C   0  0  0  0  0  0
   -3.6858  -45.8755    8.1684 C   0  0  0  0  0  0
   -5.0105  -45.5509    8.5405 C   0  0  0  0  0  0
   -5.5477  -46.0841    9.8650 C   0  0  0  0  0  0
   -5.8300  -44.7577    7.6740 C   0  0  0  0  0  0
   -7.5347  -44.6048    8.0364 Cl  0  0  0  0  0  0
   -5.2803  -44.2218    6.4526 C   0  0  0  0  0  0
   -6.1673  -43.5358    5.4092 C   0  0  0  0  0  0
   -3.9498  -44.6056    6.1055 C   0  0  0  0  0  0
   -0.9040  -52.5293    6.7970 H   0  0  0  0  0  0
   -3.7785  -52.2292    6.3510 Cl  0  0  0  0  0  0
   -3.8812  -49.5855    5.6768 H   0  0  0  0  0  0
   -2.1149  -47.9037    5.3689 H   0  0  0  0  0  0
   -0.0473  -46.7660    4.7760 H   0  0  0  0  0  0
    1.6595  -46.7337    5.0683 H   0  0  0  0  0  0
    0.6797  -45.0052    6.3612 H   0  0  0  0  0  0
    1.2390  -46.2047    7.4995 H   0  0  0  0  0  0
   -0.9347  -45.2957    8.1937 H   0  0  0  0  0  0
   -1.1557  -47.0055    7.8540 H   0  0  0  0  0  0
   -3.1035  -46.5128    8.8163 H   0  0  0  0  0  0
   -4.8095  -46.7307   10.3436 H   0  0  0  0  0  0
   -6.4618  -46.6573    9.7156 H   0  0  0  0  0  0
   -5.7577  -45.2495   10.5431 H   0  0  0  0  0  0
   -5.7244  -43.6662    4.4159 H   0  0  0  0  0  0
   -7.1562  -44.0004    5.3636 H   0  0  0  0  0  0
   -6.2914  -42.4690    5.5765 H   0  0  0  0  0  0
   -3.5438  -44.3002    5.1507 H   0  0  0  0  0  0
    2.0477  -51.6787    6.9279 C   0  0  0  0  0  0
    1.4207  -52.5522    7.1224 H   0  0  0  0  0  0
    2.7411  -51.9145    6.1167 H   0  0  0  0  0  0
    2.6260  -51.4541    7.8319 H   0  0  0  0  0  0
    1.2395  -50.5277    6.5532 N   0  0  0  0  0  0
  1  2  2  0  0  0
  2  3  1  0  0  0
  2  4  1  0  0  0
  4 11  2  0  0  0
  4 47  1  0  0  0
  5  6  1  0  0  0
  5 10  2  0  0  0
  5 47  1  0  0  0
  6  7  2  0  0  0
  6 25  1  0  0  0
  7  8  1  0  0  0
  7 26  1  0  0  0
  8  9  2  0  0  0
  8 27  1  0  0  0
  9 10  1  0  0  0
  9 28  1  0  0  0
 10 11  1  0  0  0
 11 12  1  0  0  0
 12 29  1  0  0  0
 12 30  1  0  0  0
 12 13  1  0  0  0
 13 14  1  0  0  0
 13 31  1  0  0  0
 13 32  1  0  0  0
 14 15  1  0  0  0
 14 33  1  0  0  0
 14 34  1  0  0  0
 15 16  1  0  0  0
 16 17  1  0  0  0
 16 24  2  0  0  0
 17 18  2  0  0  0
 17 35  1  0  0  0
 18 19  1  0  0  0
 18 20  1  0  0  0
 19 36  1  0  0  0
 19 37  1  0  0  0
 19 38  1  0  0  0
 20 21  1  0  0  0
 20 22  2  0  0  0
 22 23  1  0  0  0
 22 24  1  0  0  0
 23 39  1  0  0  0
 23 40  1  0  0  0
 23 41  1  0  0  0
 24 42  1  0  0  0
 43 44  1  0  0  0
 43 45  1  0  0  0
 43 46  1  0  0  0
 43 47  1  0  0  0
M  CHG  1   3  -1
M  END
> <s_m_entry_id>
87

> <s_m_entry_name>
MCL1_58.1

> <r_m_Molecular_weight>
405.30445

> <s_m_Source_Path>
C:\Users\yujiethinkpad\Desktop\05A\MCL1\original

> <s_m_Source_File>
MCL1_58.sdf

> <r_user_dG.exp>
-9.40789916598878

> <s_fepmapper_entryid>
30

> <i_fepmapper_bias>
0

> <i_fepmapper_affinity>
1

> <r_fepmapper_exp_dG>
-9.40789916599

> <i_fepmapper_unit>
1

> <i_m_Source_File_Index>
1

> <s_m_job_name>
glide-dock_SP_redock_1080

> <s_i_glide_gridfile>
glide-grid_MCL1

> <i_i_glide_lignum>
42

> <i_i_glide_rotatable_bonds>
6

> <r_i_docking_score>
-8.36930905940313

> <r_i_glide_ligand_efficiency>
-0.309974409607523

> <r_i_glide_ligand_efficiency_sa>
-0.929923227800945

> <r_i_glide_ligand_efficiency_ln>
-1.94823717018557

> <r_i_glide_gscore>
-8.36930905940313

> <r_i_glide_lipo>
-5.24452842565475

> <r_i_glide_hbond>
-0.2

> <r_i_glide_metal>
0

> <r_i_glide_rewards>
-1.55668103111103

> <r_i_glide_evdw>
-29.9703521728516

> <r_i_glide_ecoul>
-2.97692084312439

> <r_i_glide_erotb>
0.598166599396215

> <r_i_glide_esite>
-0.021210466922324

> <r_i_glide_emodel>
-44.1240834035075

> <r_i_glide_energy>
-32.947273015976

> <r_i_glide_einternal>
6.12954092025757

> <i_i_glide_confnum>
252

> <i_i_glide_posenum>
166

> <r_i_glide_eff_state_penalty>
0

> <r_glide_shape_similarity>
0.911711931228638

> <s_m_subgroup_title>
glide-dock_SP_redock_1080_lib1

> <s_m_subgroupid>
glide-dock_SP_redock_1080_lib1

> <b_m_subgroup_collapsed>
0

$$$$
