61
                    3D
 Schrodinger Suite 2021-2.
 43 45  0  0  1  0            999 V2000
    3.6591  -48.1701    7.1472 O   0  0  0  0  0  0
    3.1569  -48.9510    6.3076 C   0  0  0  0  0  0
    3.7528  -49.4162    5.3201 O   0  5  0  0  0  0
    1.7527  -49.3024    6.3615 C   0  0  0  0  0  0
    1.5009  -50.9603    6.8292 S   0  0  0  0  0  0
   -0.2145  -50.7958    6.5391 C   0  0  0  0  0  0
   -1.1944  -51.7972    6.7263 C   0  0  0  0  0  0
   -2.5486  -51.5223    6.4516 C   0  0  0  0  0  0
   -2.9005  -50.2642    5.9330 C   0  0  0  0  0  0
   -1.8986  -49.2979    5.6913 C   0  0  0  0  0  0
   -0.5348  -49.4805    6.0448 C   0  0  0  0  0  0
    0.6359  -48.5961    5.9740 C   0  0  0  0  0  0
    0.7041  -47.1427    5.5328 C   0  0  0  0  0  0
    0.5104  -46.1345    6.6868 C   0  0  0  0  0  0
   -0.8654  -46.2092    7.3787 C   0  0  0  0  0  0
   -1.8800  -45.7353    6.5191 O   0  0  0  0  0  0
   -3.1038  -45.4598    7.0651 C   0  0  0  0  0  0
   -3.9690  -44.6097    6.3296 C   0  0  0  0  0  0
   -5.3083  -44.4295    6.7525 C   0  0  0  0  0  0
   -6.2529  -43.6433    5.8511 C   0  0  0  0  0  0
   -5.7331  -45.0073    7.9790 C   0  0  0  0  0  0
   -7.3390  -44.7654    8.5558 Cl  0  0  0  0  0  0
   -4.8539  -45.8320    8.7201 C   0  0  0  0  0  0
   -5.3161  -46.5407    9.9647 C   0  0  0  0  0  0
   -3.5444  -46.0621    8.2662 C   0  0  0  0  0  0
   -0.9016  -52.7692    7.0977 H   0  0  0  0  0  0
   -3.3041  -52.2804    6.6073 H   0  0  0  0  0  0
   -3.9247  -50.0609    5.6554 H   0  0  0  0  0  0
   -2.3379  -47.9168    4.7990 Cl  0  0  0  0  0  0
    0.0058  -46.9344    4.7350 H   0  0  0  0  0  0
    1.6760  -46.9419    5.0791 H   0  0  0  0  0  0
    0.6815  -45.1218    6.3229 H   0  0  0  0  0  0
    1.2878  -46.3143    7.4301 H   0  0  0  0  0  0
   -0.8488  -45.6657    8.3265 H   0  0  0  0  0  0
   -1.1410  -47.2443    7.5549 H   0  0  0  0  0  0
   -3.6383  -44.2090    5.3825 H   0  0  0  0  0  0
   -6.4913  -44.2389    4.9694 H   0  0  0  0  0  0
   -5.7676  -42.7245    5.5160 H   0  0  0  0  0  0
   -7.1934  -43.3727    6.3302 H   0  0  0  0  0  0
   -4.5026  -47.1545   10.3464 H   0  0  0  0  0  0
   -5.6161  -45.8064   10.7062 H   0  0  0  0  0  0
   -6.1571  -47.1978    9.7493 H   0  0  0  0  0  0
   -2.9086  -46.7339    8.8211 H   0  0  0  0  0  0
  1  2  2  0  0  0
  2  3  1  0  0  0
  2  4  1  0  0  0
  4  5  1  0  0  0
  4 12  2  0  0  0
  5  6  1  0  0  0
  6  7  1  0  0  0
  6 11  2  0  0  0
  7  8  2  0  0  0
  7 26  1  0  0  0
  8  9  1  0  0  0
  8 27  1  0  0  0
  9 10  2  0  0  0
  9 28  1  0  0  0
 10 11  1  0  0  0
 10 29  1  0  0  0
 11 12  1  0  0  0
 12 13  1  0  0  0
 13 30  1  0  0  0
 13 31  1  0  0  0
 13 14  1  0  0  0
 14 15  1  0  0  0
 14 32  1  0  0  0
 14 33  1  0  0  0
 15 16  1  0  0  0
 15 34  1  0  0  0
 15 35  1  0  0  0
 16 17  1  0  0  0
 17 18  1  0  0  0
 17 25  2  0  0  0
 18 19  2  0  0  0
 18 36  1  0  0  0
 19 20  1  0  0  0
 19 21  1  0  0  0
 20 37  1  0  0  0
 20 38  1  0  0  0
 20 39  1  0  0  0
 21 22  1  0  0  0
 21 23  2  0  0  0
 23 24  1  0  0  0
 23 25  1  0  0  0
 24 40  1  0  0  0
 24 41  1  0  0  0
 24 42  1  0  0  0
 25 43  1  0  0  0
M  CHG  1   3  -1
M  END
> <s_m_entry_id>
98

> <s_m_entry_name>
MCL1_61.1

> <r_m_Molecular_weight>
408.32669

> <s_m_Source_Path>
C:\Users\yujiethinkpad\Desktop\05A\MCL1\original

> <s_m_Source_File>
MCL1_61.sdf

> <r_user_dG.exp>
-8.07943709994224

> <s_fepmapper_entryid>
25

> <i_fepmapper_bias>
0

> <i_fepmapper_affinity>
1

> <r_fepmapper_exp_dG>
-8.07943709994

> <i_fepmapper_unit>
1

> <i_m_Source_File_Index>
1

> <s_m_job_name>
glide-dock_SP_redock_1080

> <s_i_glide_gridfile>
glide-grid_MCL1

> <i_i_glide_lignum>
2

> <i_i_glide_rotatable_bonds>
6

> <r_i_docking_score>
-7.9913550334989

> <r_i_glide_ligand_efficiency>
-0.307359808980727

> <r_i_glide_ligand_efficiency_sa>
-0.910552224702955

> <r_i_glide_ligand_efficiency_ln>
-1.87674350784261

> <r_i_glide_gscore>
-7.9913550334989

> <r_i_glide_lipo>
-5.21553628051083

> <r_i_glide_hbond>
-0.2

> <r_i_glide_metal>
0

> <r_i_glide_rewards>
-1.48442385896609

> <r_i_glide_evdw>
-22.0652713775635

> <r_i_glide_ecoul>
-3.78292202949524

> <r_i_glide_erotb>
0.590202387595814

> <r_i_glide_esite>
-0.0108954083153366

> <r_i_glide_emodel>
-41.0150881437822

> <r_i_glide_energy>
-25.8481934070587

> <r_i_glide_einternal>
10.0162334442139

> <i_i_glide_confnum>
218

> <i_i_glide_posenum>
375

> <r_i_glide_eff_state_penalty>
0

> <r_glide_shape_similarity>
0.948601126670837

> <s_m_subgroup_title>
glide-dock_SP_redock_1080_lib1

> <s_m_subgroupid>
glide-dock_SP_redock_1080_lib1

> <b_m_subgroup_collapsed>
0

$$$$
