63
                    3D
 Schrodinger Suite 2021-2.
 43 45  0  0  1  0            999 V2000
    4.1759  -49.4062    6.3699 O   0  0  0  0  0  0
    3.1684  -48.6514    6.4853 C   0  0  0  0  0  0
    3.2652  -47.4367    6.7514 O   0  5  0  0  0  0
    1.8209  -49.1938    6.3022 C   0  0  0  0  0  0
    1.6870  -50.8905    6.6507 S   0  0  0  0  0  0
   -0.0395  -50.7805    6.4466 C   0  0  0  0  0  0
   -0.9058  -51.8382    6.7049 C   0  0  0  0  0  0
   -2.2814  -51.6020    6.7114 C   0  0  0  0  0  0
   -2.8019  -50.3519    6.2770 C   0  0  0  0  0  0
   -1.9051  -49.2990    5.9271 C   0  0  0  0  0  0
   -0.4882  -49.4596    6.0746 C   0  0  0  0  0  0
    0.6351  -48.5558    5.9538 C   0  0  0  0  0  0
    0.5521  -47.1093    5.5284 C   0  0  0  0  0  0
    0.4638  -46.0979    6.7031 C   0  0  0  0  0  0
   -0.9007  -46.0575    7.4161 C   0  0  0  0  0  0
   -1.9215  -45.8027    6.4502 O   0  0  0  0  0  0
   -3.1684  -45.4217    6.9179 C   0  0  0  0  0  0
   -3.9406  -44.6060    6.0488 C   0  0  0  0  0  0
   -5.2728  -44.2093    6.3737 C   0  0  0  0  0  0
   -6.1231  -43.4982    5.3209 C   0  0  0  0  0  0
   -5.8438  -44.6797    7.5909 C   0  0  0  0  0  0
   -7.5370  -44.4610    7.9451 Cl  0  0  0  0  0  0
   -5.0534  -45.4736    8.4913 C   0  0  0  0  0  0
   -5.6209  -45.9688    9.8114 C   0  0  0  0  0  0
   -3.7206  -45.8485    8.1403 C   0  0  0  0  0  0
   -0.5070  -52.7791    7.0358 H   0  0  0  0  0  0
   -3.1843  -52.8687    7.4479 Cl  0  0  0  0  0  0
   -3.8659  -50.1802    6.2673 H   0  0  0  0  0  0
   -2.2834  -48.3390    5.6477 H   0  0  0  0  0  0
   -0.2796  -46.9665    4.8398 H   0  0  0  0  0  0
    1.4239  -46.8667    4.9240 H   0  0  0  0  0  0
    0.6869  -45.0939    6.3364 H   0  0  0  0  0  0
    1.2294  -46.2991    7.4431 H   0  0  0  0  0  0
   -0.8896  -45.2925    8.1976 H   0  0  0  0  0  0
   -1.1460  -47.0057    7.8640 H   0  0  0  0  0  0
   -3.5236  -44.3136    5.1038 H   0  0  0  0  0  0
   -5.5295  -43.2700    4.4334 H   0  0  0  0  0  0
   -6.5751  -42.5819    5.6926 H   0  0  0  0  0  0
   -6.9380  -44.1499    5.0017 H   0  0  0  0  0  0
   -4.8937  -46.5756   10.3485 H   0  0  0  0  0  0
   -5.8705  -45.1141   10.4465 H   0  0  0  0  0  0
   -6.5284  -46.5597    9.6593 H   0  0  0  0  0  0
   -3.1620  -46.4935    8.7921 H   0  0  0  0  0  0
  1  2  2  0  0  0
  2  3  1  0  0  0
  2  4  1  0  0  0
  4  5  1  0  0  0
  4 12  2  0  0  0
  5  6  1  0  0  0
  6  7  1  0  0  0
  6 11  2  0  0  0
  7  8  2  0  0  0
  7 26  1  0  0  0
  8  9  1  0  0  0
  8 27  1  0  0  0
  9 10  2  0  0  0
  9 28  1  0  0  0
 10 11  1  0  0  0
 10 29  1  0  0  0
 11 12  1  0  0  0
 12 13  1  0  0  0
 13 30  1  0  0  0
 13 31  1  0  0  0
 13 14  1  0  0  0
 14 15  1  0  0  0
 14 32  1  0  0  0
 14 33  1  0  0  0
 15 16  1  0  0  0
 15 34  1  0  0  0
 15 35  1  0  0  0
 16 17  1  0  0  0
 17 18  1  0  0  0
 17 25  2  0  0  0
 18 19  2  0  0  0
 18 36  1  0  0  0
 19 20  1  0  0  0
 19 21  1  0  0  0
 20 37  1  0  0  0
 20 38  1  0  0  0
 20 39  1  0  0  0
 21 22  1  0  0  0
 21 23  2  0  0  0
 23 24  1  0  0  0
 23 25  1  0  0  0
 24 40  1  0  0  0
 24 41  1  0  0  0
 24 42  1  0  0  0
 25 43  1  0  0  0
M  CHG  1   3  -1
M  END
> <s_m_entry_id>
96

> <s_m_entry_name>
MCL1_63.1

> <r_m_Molecular_weight>
408.32669

> <s_m_Source_Path>
C:\Users\yujiethinkpad\Desktop\05A\MCL1\original

> <s_m_Source_File>
MCL1_63.sdf

> <r_user_dG.exp>
-9.06225196641364

> <s_fepmapper_entryid>
31

> <i_fepmapper_bias>
0

> <i_fepmapper_affinity>
1

> <r_fepmapper_exp_dG>
-9.06225196641

> <i_fepmapper_unit>
1

> <i_m_Source_File_Index>
1

> <s_m_job_name>
glide-dock_SP_redock_1080

> <s_i_glide_gridfile>
glide-grid_MCL1

> <i_i_glide_lignum>
4

> <i_i_glide_rotatable_bonds>
6

> <r_i_docking_score>
-8.09686163025747

> <r_i_glide_ligand_efficiency>
-0.311417755009903

> <r_i_glide_ligand_efficiency_sa>
-0.922573873847142

> <r_i_glide_ligand_efficiency_ln>
-1.90152138589598

> <r_i_glide_gscore>
-8.09686163025747

> <r_i_glide_lipo>
-5.16229210131389

> <r_i_glide_hbond>
-0.2

> <r_i_glide_metal>
0

> <r_i_glide_rewards>
-1.39149859080323

> <r_i_glide_evdw>
-30.2084255218506

> <r_i_glide_ecoul>
-2.62814617156982

> <r_i_glide_erotb>
0.590202387595814

> <r_i_glide_esite>
-0.0286301239081659

> <r_i_glide_emodel>
-45.4834353974568

> <r_i_glide_energy>
-32.8365716934204

> <r_i_glide_einternal>
5.63507556915283

> <i_i_glide_confnum>
161

> <i_i_glide_posenum>
301

> <r_i_glide_eff_state_penalty>
0

> <r_glide_shape_similarity>
0.929845154285431

> <s_m_subgroup_title>
glide-dock_SP_redock_1080_lib1

> <s_m_subgroupid>
glide-dock_SP_redock_1080_lib1

> <b_m_subgroup_collapsed>
0

$$$$
