65
                    3D
 Schrodinger Suite 2021-2.
 43 45  0  0  1  0            999 V2000
    4.1342  -49.4550    6.3469 O   0  0  0  0  0  0
    3.1449  -48.6936    6.4824 C   0  0  0  0  0  0
    3.2598  -47.4840    6.7718 O   0  5  0  0  0  0
    1.7784  -49.2119    6.3248 C   0  0  0  0  0  0
    1.5437  -50.8926    6.7258 S   0  0  0  0  0  0
   -0.1882  -50.7410    6.4654 C   0  0  0  0  0  0
   -1.1756  -51.7350    6.6148 C   0  0  0  0  0  0
   -2.5365  -51.4157    6.3607 C   0  0  0  0  0  0
   -2.8965  -50.1150    5.9615 C   0  0  0  0  0  0
   -1.9025  -49.1302    5.8046 C   0  0  0  0  0  0
   -0.5275  -49.4079    6.0478 C   0  0  0  0  0  0
    0.6265  -48.5404    5.9573 C   0  0  0  0  0  0
    0.5613  -47.0986    5.5126 C   0  0  0  0  0  0
    0.4665  -46.0759    6.6808 C   0  0  0  0  0  0
   -0.9026  -46.0620    7.4112 C   0  0  0  0  0  0
   -1.9193  -45.8052    6.4588 O   0  0  0  0  0  0
   -3.1644  -45.4293    6.9177 C   0  0  0  0  0  0
   -3.9466  -44.6059    6.0720 C   0  0  0  0  0  0
   -5.2841  -44.2137    6.4175 C   0  0  0  0  0  0
   -6.1420  -43.4986    5.3741 C   0  0  0  0  0  0
   -5.8367  -44.6972    7.6468 C   0  0  0  0  0  0
   -7.5165  -44.4555    8.0107 Cl  0  0  0  0  0  0
   -5.0321  -45.5103    8.5153 C   0  0  0  0  0  0
   -5.5728  -46.0443    9.8404 C   0  0  0  0  0  0
   -3.7138  -45.8820    8.1459 C   0  0  0  0  0  0
   -0.7594  -53.3338    7.1440 Cl  0  0  0  0  0  0
   -3.3044  -52.1587    6.5033 H   0  0  0  0  0  0
   -3.9265  -49.8689    5.7780 H   0  0  0  0  0  0
   -2.2037  -48.1419    5.4953 H   0  0  0  0  0  0
   -0.2914  -46.9502    4.8508 H   0  0  0  0  0  0
    1.4131  -46.8466    4.8858 H   0  0  0  0  0  0
    0.6475  -45.0882    6.2594 H   0  0  0  0  0  0
    1.2637  -46.2147    7.4080 H   0  0  0  0  0  0
   -0.8964  -45.2762    8.1649 H   0  0  0  0  0  0
   -1.1378  -47.0112    7.8661 H   0  0  0  0  0  0
   -3.5593  -44.2833    5.1233 H   0  0  0  0  0  0
   -5.6423  -43.5728    4.4014 H   0  0  0  0  0  0
   -6.2963  -42.4317    5.5544 H   0  0  0  0  0  0
   -7.1144  -43.9959    5.2445 H   0  0  0  0  0  0
   -4.8600  -46.7106   10.3358 H   0  0  0  0  0  0
   -5.7739  -45.2157   10.5194 H   0  0  0  0  0  0
   -6.5112  -46.5973    9.7092 H   0  0  0  0  0  0
   -3.1642  -46.5443    8.7987 H   0  0  0  0  0  0
  1  2  2  0  0  0
  2  3  1  0  0  0
  2  4  1  0  0  0
  4  5  1  0  0  0
  4 12  2  0  0  0
  5  6  1  0  0  0
  6  7  1  0  0  0
  6 11  2  0  0  0
  7  8  2  0  0  0
  7 26  1  0  0  0
  8  9  1  0  0  0
  8 27  1  0  0  0
  9 10  2  0  0  0
  9 28  1  0  0  0
 10 11  1  0  0  0
 10 29  1  0  0  0
 11 12  1  0  0  0
 12 13  1  0  0  0
 13 30  1  0  0  0
 13 31  1  0  0  0
 13 14  1  0  0  0
 14 15  1  0  0  0
 14 32  1  0  0  0
 14 33  1  0  0  0
 15 16  1  0  0  0
 15 34  1  0  0  0
 15 35  1  0  0  0
 16 17  1  0  0  0
 17 18  1  0  0  0
 17 25  2  0  0  0
 18 19  2  0  0  0
 18 36  1  0  0  0
 19 20  1  0  0  0
 19 21  1  0  0  0
 20 37  1  0  0  0
 20 38  1  0  0  0
 20 39  1  0  0  0
 21 22  1  0  0  0
 21 23  2  0  0  0
 23 24  1  0  0  0
 23 25  1  0  0  0
 24 40  1  0  0  0
 24 41  1  0  0  0
 24 42  1  0  0  0
 25 43  1  0  0  0
M  CHG  1   3  -1
M  END
> <s_m_entry_id>
91

> <s_m_entry_name>
MCL1_65.1

> <r_m_Molecular_weight>
408.32669

> <s_m_Source_Path>
C:\Users\yujiethinkpad\Desktop\05A\MCL1\original

> <s_m_Source_File>
MCL1_65.sdf

> <r_user_dG.exp>
-8.40733622276992

> <s_fepmapper_entryid>
29

> <i_fepmapper_bias>
0

> <i_fepmapper_affinity>
1

> <r_fepmapper_exp_dG>
-8.40733622277

> <i_fepmapper_unit>
1

> <i_m_Source_File_Index>
1

> <s_m_job_name>
glide-dock_SP_redock_1080

> <s_i_glide_gridfile>
glide-grid_MCL1

> <i_i_glide_lignum>
6

> <i_i_glide_rotatable_bonds>
6

> <r_i_docking_score>
-8.2261449680785

> <r_i_glide_ligand_efficiency>
-0.316390191079942

> <r_i_glide_ligand_efficiency_sa>
-0.937304696139042

> <r_i_glide_ligand_efficiency_ln>
-1.93188315357001

> <r_i_glide_gscore>
-8.2261449680785

> <r_i_glide_lipo>
-5.23131192584446

> <r_i_glide_hbond>
-0.2

> <r_i_glide_metal>
0

> <r_i_glide_rewards>
-1.3845269896913

> <r_i_glide_evdw>
-31.0924053192139

> <r_i_glide_ecoul>
-2.80443096160889

> <r_i_glide_erotb>
0.590202387595814

> <r_i_glide_esite>
-0.0252235299365176

> <r_i_glide_emodel>
-50.9949708278543

> <r_i_glide_energy>
-33.8968362808228

> <r_i_glide_einternal>
4.89407968521118

> <i_i_glide_confnum>
247

> <i_i_glide_posenum>
3

> <r_i_glide_eff_state_penalty>
0

> <r_glide_shape_similarity>
0.945723712444305

> <s_m_subgroup_title>
glide-dock_SP_redock_1080_lib1

> <s_m_subgroupid>
glide-dock_SP_redock_1080_lib1

> <b_m_subgroup_collapsed>
0

$$$$
