67
                    3D
 Schrodinger Suite 2021-2.
 43 45  0  0  1  0            999 V2000
    3.2599  -47.7130    6.8095 O   0  0  0  0  0  0
    3.0213  -48.9110    6.5525 C   0  0  0  0  0  0
    3.9263  -49.7614    6.4688 O   0  5  0  0  0  0
    1.6249  -49.2998    6.3491 C   0  0  0  0  0  0
   -0.1505  -50.6227    6.4278 C   0  0  0  0  0  0
   -1.0431  -51.6873    6.6104 C   0  0  0  0  0  0
   -2.4127  -51.4658    6.3846 C   0  0  0  0  0  0
   -2.8610  -50.2012    5.9754 C   0  0  0  0  0  0
   -1.9466  -49.1589    5.7875 C   0  0  0  0  0  0
   -0.5784  -49.3518    6.0195 C   0  0  0  0  0  0
    0.5672  -48.5282    5.9512 C   0  0  0  0  0  0
    0.5741  -47.1069    5.5295 C   0  0  0  0  0  0
    0.4848  -46.1228    6.6932 C   0  0  0  0  0  0
   -0.8654  -46.0722    7.4064 C   0  0  0  0  0  0
   -1.8983  -45.8061    6.4979 O   0  0  0  0  0  0
   -3.1047  -45.4956    7.0547 C   0  0  0  0  0  0
   -3.5401  -46.0570    8.2658 C   0  0  0  0  0  0
   -4.8289  -45.8052    8.7252 C   0  0  0  0  0  0
   -5.2863  -46.4550    9.9910 C   0  0  0  0  0  0
   -5.6975  -45.0030    7.9820 C   0  0  0  0  0  0
   -7.2875  -44.7598    8.5606 Cl  0  0  0  0  0  0
   -5.2794  -44.4468    6.7602 C   0  0  0  0  0  0
   -6.2173  -43.6633    5.8778 C   0  0  0  0  0  0
   -3.9589  -44.6537    6.3285 C   0  0  0  0  0  0
   -0.6804  -52.6538    6.9269 H   0  0  0  0  0  0
   -3.1204  -52.2711    6.5229 H   0  0  0  0  0  0
   -3.9137  -50.0306    5.7962 H   0  0  0  0  0  0
   -2.3012  -48.1900    5.4681 H   0  0  0  0  0  0
   -0.2352  -46.9251    4.8231 H   0  0  0  0  0  0
    1.4841  -46.8980    4.9653 H   0  0  0  0  0  0
    0.7056  -45.1281    6.3085 H   0  0  0  0  0  0
    1.2639  -46.3236    7.4266 H   0  0  0  0  0  0
   -0.8332  -45.3174    8.1940 H   0  0  0  0  0  0
   -1.1400  -47.0061    7.8624 H   0  0  0  0  0  0
   -2.9212  -46.7207    8.8481 H   0  0  0  0  0  0
   -4.5417  -47.1640   10.3516 H   0  0  0  0  0  0
   -6.2153  -47.0052    9.8386 H   0  0  0  0  0  0
   -5.4543  -45.6927   10.7510 H   0  0  0  0  0  0
   -6.4528  -44.2478    4.9868 H   0  0  0  0  0  0
   -7.1585  -43.4009    6.3530 H   0  0  0  0  0  0
   -5.7410  -42.7385    5.5517 H   0  0  0  0  0  0
   -3.6322  -44.2505    5.3804 H   0  0  0  0  0  0
    1.2167  -50.5898    6.6065 O   0  0  0  0  0  0
  1  2  2  0  0  0
  2  3  1  0  0  0
  2  4  1  0  0  0
  4 11  2  0  0  0
  4 43  1  0  0  0
  5  6  1  0  0  0
  5 10  2  0  0  0
  5 43  1  0  0  0
  6  7  2  0  0  0
  6 25  1  0  0  0
  7  8  1  0  0  0
  7 26  1  0  0  0
  8  9  2  0  0  0
  8 27  1  0  0  0
  9 10  1  0  0  0
  9 28  1  0  0  0
 10 11  1  0  0  0
 11 12  1  0  0  0
 12 29  1  0  0  0
 12 30  1  0  0  0
 12 13  1  0  0  0
 13 14  1  0  0  0
 13 31  1  0  0  0
 13 32  1  0  0  0
 14 15  1  0  0  0
 14 33  1  0  0  0
 14 34  1  0  0  0
 15 16  1  0  0  0
 16 17  1  0  0  0
 16 24  2  0  0  0
 17 18  2  0  0  0
 17 35  1  0  0  0
 18 19  1  0  0  0
 18 20  1  0  0  0
 19 36  1  0  0  0
 19 37  1  0  0  0
 19 38  1  0  0  0
 20 21  1  0  0  0
 20 22  2  0  0  0
 22 23  1  0  0  0
 22 24  1  0  0  0
 23 39  1  0  0  0
 23 40  1  0  0  0
 23 41  1  0  0  0
 24 42  1  0  0  0
M  CHG  1   3  -1
M  END
> <s_m_entry_id>
99

> <s_m_entry_name>
MCL1_67.1

> <r_m_Molecular_weight>
357.81706

> <s_m_Source_Path>
C:\Users\yujiethinkpad\Desktop\05A\MCL1\original

> <s_m_Source_File>
MCL1_67.sdf

> <r_user_dG.exp>
-7.58092456527552

> <s_fepmapper_entryid>
41

> <i_fepmapper_bias>
0

> <i_fepmapper_affinity>
1

> <r_fepmapper_exp_dG>
-7.58092456528

> <i_fepmapper_unit>
1

> <i_m_Source_File_Index>
1

> <s_m_job_name>
glide-dock_SP_redock_1080

> <s_i_glide_gridfile>
glide-grid_MCL1

> <i_i_glide_lignum>
8

> <i_i_glide_rotatable_bonds>
6

> <r_i_docking_score>
-7.96162017379109

> <r_i_glide_ligand_efficiency>
-0.318464806951644

> <r_i_glide_ligand_efficiency_sa>
-0.931196743524007

> <r_i_glide_ligand_efficiency_ln>
-1.88714257169203

> <r_i_glide_gscore>
-7.96162017379109

> <r_i_glide_lipo>
-5.05829563334477

> <r_i_glide_hbond>
-0.2

> <r_i_glide_metal>
0

> <r_i_glide_rewards>
-1.71563611539738

> <r_i_glide_evdw>
-26.6925621032715

> <r_i_glide_ecoul>
-2.62291407585144

> <r_i_glide_erotb>
0.74783252790683

> <r_i_glide_esite>
-0.00745573641448385

> <r_i_glide_emodel>
-47.214633332963

> <r_i_glide_energy>
-29.3154761791229

> <r_i_glide_einternal>
4.13539218902588

> <i_i_glide_confnum>
242

> <i_i_glide_posenum>
30

> <r_i_glide_eff_state_penalty>
0

> <r_glide_shape_similarity>
0.973507642745972

> <s_m_subgroup_title>
glide-dock_SP_redock_1080_lib1

> <s_m_subgroupid>
glide-dock_SP_redock_1080_lib1

> <b_m_subgroup_collapsed>
0

$$$$
