68
                    3D
 Schrodinger Suite 2021-2.
 43 46  0  0  1  0            999 V2000
    2.0663  -46.2401    5.5479 O   0  0  0  0  0  0
    2.2470  -47.3274    6.1438 C   0  0  0  0  0  0
    3.2599  -47.6034    6.8238 O   0  5  0  0  0  0
    1.1741  -48.3069    6.0747 C   0  0  0  0  0  0
    0.2792  -50.3032    6.2646 C   0  0  0  0  0  0
    0.0676  -51.6698    6.5026 C   0  0  0  0  0  0
   -1.2623  -52.1361    6.5315 C   0  0  0  0  0  0
   -2.3317  -51.2383    6.3045 C   0  0  0  0  0  0
   -2.1027  -49.8717    6.0522 C   0  0  0  0  0  0
   -0.7808  -49.3767    6.0450 C   0  0  0  0  0  0
   -0.1802  -48.0823    5.9510 C   0  0  0  0  0  0
   -0.8899  -46.7477    5.9929 C   0  0  0  0  0  0
   -1.1075  -46.3956    7.4686 C   0  0  0  0  0  0
   -2.1300  -45.3512    7.8291 C   0  0  0  0  0  0
   -3.2938  -45.7844    7.1843 O   0  0  0  0  0  0
   -4.4640  -45.4060    7.7662 C   0  0  0  0  0  0
   -7.0738  -44.8766    8.6818 C   0  0  0  0  0  0
   -6.1736  -45.6081    9.4962 C   0  0  0  0  0  0
   -4.8802  -45.9129    9.0185 C   0  0  0  0  0  0
    0.9011  -52.3338    6.6778 H   0  0  0  0  0  0
   -1.4655  -53.1791    6.7272 H   0  0  0  0  0  0
   -3.9402  -51.8060    6.3509 Cl  0  0  0  0  0  0
   -2.9326  -49.1963    5.9032 H   0  0  0  0  0  0
   -0.3146  -45.9432    5.5510 H   0  0  0  0  0  0
   -1.8325  -46.8078    5.4488 H   0  0  0  0  0  0
   -1.5402  -47.2777    7.9269 H   0  0  0  0  0  0
   -0.1532  -46.2027    7.9505 H   0  0  0  0  0  0
   -2.2219  -45.4058    8.9071 H   0  0  0  0  0  0
   -1.8782  -44.3330    7.5527 H   0  0  0  0  0  0
   -4.2232  -46.5412    9.6020 H   0  0  0  0  0  0
   -6.6633  -44.4148    7.4059 C   0  0  0  0  0  0
   -5.3218  -44.6060    6.9858 C   0  0  0  0  0  0
   -4.8679  -44.1137    5.7356 C   0  0  0  0  0  0
   -5.7816  -43.5174    4.8497 C   0  0  0  0  0  0
   -7.1399  -43.4076    5.2177 C   0  0  0  0  0  0
   -7.5726  -43.8157    6.5007 C   0  0  0  0  0  0
   -3.8472  -44.2494    5.4103 H   0  0  0  0  0  0
   -5.4475  -43.1857    3.8782 H   0  0  0  0  0  0
   -7.8531  -43.0060    4.5157 H   0  0  0  0  0  0
   -8.6144  -43.7055    6.7507 H   0  0  0  0  0  0
   -6.4967  -45.9813   10.4572 H   0  0  0  0  0  0
   -8.0807  -44.6977    9.0252 H   0  0  0  0  0  0
    1.4823  -49.6357    6.2513 O   0  0  0  0  0  0
  1  2  2  0  0  0
  2  3  1  0  0  0
  2  4  1  0  0  0
  4 11  2  0  0  0
  4 43  1  0  0  0
  5  6  1  0  0  0
  5 10  2  0  0  0
  5 43  1  0  0  0
  6  7  2  0  0  0
  6 20  1  0  0  0
  7  8  1  0  0  0
  7 21  1  0  0  0
  8  9  2  0  0  0
  8 22  1  0  0  0
  9 10  1  0  0  0
  9 23  1  0  0  0
 10 11  1  0  0  0
 11 12  1  0  0  0
 12 24  1  0  0  0
 12 25  1  0  0  0
 12 13  1  0  0  0
 13 14  1  0  0  0
 13 26  1  0  0  0
 13 27  1  0  0  0
 14 15  1  0  0  0
 14 28  1  0  0  0
 14 29  1  0  0  0
 15 16  1  0  0  0
 16 19  2  0  0  0
 16 32  1  0  0  0
 17 18  2  0  0  0
 17 31  1  0  0  0
 17 42  1  0  0  0
 18 19  1  0  0  0
 18 41  1  0  0  0
 19 30  1  0  0  0
 31 32  2  0  0  0
 31 36  1  0  0  0
 32 33  1  0  0  0
 33 34  2  0  0  0
 33 37  1  0  0  0
 34 35  1  0  0  0
 34 38  1  0  0  0
 35 36  2  0  0  0
 35 39  1  0  0  0
 36 40  1  0  0  0
M  CHG  1   3  -1
M  END
> <s_m_entry_id>
68

> <s_m_entry_name>
MCL1_68.1

> <r_m_Molecular_weight>
379.82342

> <s_m_Source_Path>
C:\Users\yujiethinkpad\Desktop\05A\MCL1\original

> <s_m_Source_File>
MCL1_68.sdf

> <r_user_dG.exp>
-7.6896119149271

> <s_fepmapper_entryid>
9

> <i_fepmapper_bias>
0

> <i_fepmapper_affinity>
1

> <r_fepmapper_exp_dG>
-7.68961191493

> <i_fepmapper_unit>
1

> <i_m_Source_File_Index>
1

> <s_m_job_name>
glide-dock_SP_redock_1080

> <s_i_glide_gridfile>
glide-grid_MCL1

> <i_i_glide_lignum>
9

> <i_i_glide_rotatable_bonds>
6

> <r_i_docking_score>
-9.2779803364812

> <r_i_glide_ligand_efficiency>
-0.343628901351155

> <r_i_glide_ligand_efficiency_sa>
-1.03088670292092

> <r_i_glide_ligand_efficiency_ln>
-2.15976086287254

> <r_i_glide_gscore>
-9.2779803364812

> <r_i_glide_lipo>
-5.53320333396644

> <r_i_glide_hbond>
-0.2

> <r_i_glide_metal>
0

> <r_i_glide_rewards>
-2.16945859090909

> <r_i_glide_evdw>
-30.6832942962646

> <r_i_glide_ecoul>
-2.52606058120728

> <r_i_glide_erotb>
0.53775539038866

> <r_i_glide_esite>
0

> <r_i_glide_emodel>
-33.2525483203834

> <r_i_glide_energy>
-33.2093548774719

> <r_i_glide_einternal>
8.97317409515381

> <i_i_glide_confnum>
27

> <i_i_glide_posenum>
29

> <r_i_glide_eff_state_penalty>
0

> <r_glide_shape_similarity>
0.786404311656952

> <s_m_subgroup_title>
glide-dock_SP_redock_1080_lib1

> <s_m_subgroupid>
glide-dock_SP_redock_1080_lib1

> <b_m_subgroup_collapsed>
0

$$$$
