23
                    3D
 Schrodinger Suite 2021-2.
 43 46  0  0  1  0            999 V2000
    4.1784  -49.4639    6.2203 O   0  0  0  0  0  0
    3.2494  -48.6379    6.3898 C   0  0  0  0  0  0
    3.5057  -47.4203    6.5722 O   0  5  0  0  0  0
    1.8694  -49.1879    6.3561 C   0  0  0  0  0  0
    1.5033  -50.7915    6.7395 S   0  0  0  0  0  0
   -0.1751  -50.7678    6.4871 C   0  0  0  0  0  0
   -1.1857  -51.7207    6.5942 C   0  0  0  0  0  0
   -2.5063  -51.3885    6.3255 C   0  0  0  0  0  0
   -2.8117  -50.0805    5.9266 C   0  0  0  0  0  0
   -1.8118  -49.1247    5.7993 C   0  0  0  0  0  0
   -0.4872  -49.4555    6.0836 C   0  0  0  0  0  0
    0.6424  -48.5710    6.0066 C   0  0  0  0  0  0
    0.5308  -47.1337    5.6114 C   0  0  0  0  0  0
    0.4854  -46.1552    6.7424 C   0  0  0  0  0  0
   -0.7882  -46.0224    7.5175 C   0  0  0  0  0  0
   -1.8227  -45.6254    6.6920 O   0  0  0  0  0  0
   -3.1083  -45.4602    7.1320 C   0  0  0  0  0  0
   -5.7337  -45.0786    7.9666 C   0  0  0  0  0  0
   -4.8346  -45.8169    8.7381 C   0  0  0  0  0  0
   -3.5177  -46.0130    8.3257 C   0  0  0  0  0  0
   -0.9444  -52.7285    6.8976 H   0  0  0  0  0  0
   -3.2849  -52.1324    6.4216 H   0  0  0  0  0  0
   -3.8347  -49.8050    5.7091 H   0  0  0  0  0  0
   -2.0832  -48.1249    5.4954 H   0  0  0  0  0  0
    1.3746  -46.8733    4.9707 H   0  0  0  0  0  0
   -0.3442  -46.9921    4.9781 H   0  0  0  0  0  0
    1.2637  -46.4431    7.4491 H   0  0  0  0  0  0
    0.7729  -45.1722    6.3717 H   0  0  0  0  0  0
   -1.0026  -46.9786    7.9471 H   0  0  0  0  0  0
   -0.6249  -45.3360    8.3499 H   0  0  0  0  0  0
   -2.8664  -46.5956    8.9529 H   0  0  0  0  0  0
   -5.3052  -44.5292    6.7686 C   0  0  0  0  0  0
   -3.9866  -44.7164    6.3549 C   0  0  0  0  0  0
   -3.5701  -44.1445    5.1118 C   0  0  0  0  0  0
   -4.5264  -43.5622    4.2464 C   0  0  0  0  0  0
   -5.8833  -43.4755    4.6397 C   0  0  0  0  0  0
   -6.2615  -43.8998    5.9351 C   0  0  0  0  0  0
   -2.5587  -44.2969    4.7645 H   0  0  0  0  0  0
   -4.2216  -43.2101    3.2718 H   0  0  0  0  0  0
   -6.6127  -43.0491    3.9674 H   0  0  0  0  0  0
   -7.2886  -43.8017    6.2583 H   0  0  0  0  0  0
   -5.1570  -46.2759    9.6549 H   0  0  0  0  0  0
   -6.7722  -45.0179    8.2609 H   0  0  0  0  0  0
  1  2  2  0  0  0
  2  3  1  0  0  0
  2  4  1  0  0  0
  4  5  1  0  0  0
  4 12  2  0  0  0
  5  6  1  0  0  0
  6  7  1  0  0  0
  6 11  2  0  0  0
  7  8  2  0  0  0
  7 21  1  0  0  0
  8  9  1  0  0  0
  8 22  1  0  0  0
  9 10  2  0  0  0
  9 23  1  0  0  0
 10 11  1  0  0  0
 10 24  1  0  0  0
 11 12  1  0  0  0
 12 13  1  0  0  0
 13 25  1  0  0  0
 13 26  1  0  0  0
 13 14  1  0  0  0
 14 15  1  0  0  0
 14 27  1  0  0  0
 14 28  1  0  0  0
 15 16  1  0  0  0
 15 29  1  0  0  0
 15 30  1  0  0  0
 16 17  1  0  0  0
 17 20  2  0  0  0
 17 33  1  0  0  0
 18 19  2  0  0  0
 18 32  1  0  0  0
 18 43  1  0  0  0
 19 20  1  0  0  0
 19 42  1  0  0  0
 20 31  1  0  0  0
 32 33  2  0  0  0
 32 37  1  0  0  0
 33 34  1  0  0  0
 34 35  2  0  0  0
 34 38  1  0  0  0
 35 36  1  0  0  0
 35 39  1  0  0  0
 36 37  2  0  0  0
 36 40  1  0  0  0
 37 41  1  0  0  0
M  CHG  1   3  -1
M  END
> <s_m_entry_id>
241

> <s_m_entry_name>
MCL1_23.1

> <r_m_Molecular_weight>
361.44299

> <s_m_Source_Path>
C:\Users\yujiethinkpad\Desktop\05A\MCL1\original

> <s_m_Source_File>
MCL1_23.sdf

> <r_user_dG.exp>
-8.82854391662772

> <s_fepmapper_entryid>
21

> <i_fepmapper_bias>
0

> <i_fepmapper_affinity>
1

> <r_fepmapper_exp_dG>
-8.82854391663

> <i_fepmapper_unit>
1

> <i_m_Source_File_Index>
1

> <s_m_job_name>
align_ligands_2

> <s_i_glide_gridfile>
glide-grid_MCL1

> <i_i_glide_lignum>
9

> <i_i_glide_rotatable_bonds>
6

> <r_i_docking_score>
-9.02533005322517

> <r_i_glide_ligand_efficiency>
-0.347128078970199

> <r_i_glide_ligand_efficiency_sa>
-1.02836556806618

> <r_i_glide_ligand_efficiency_ln>
-2.11956914847656

> <r_i_glide_gscore>
-9.02533005322517

> <r_i_glide_lipo>
-5.60801380585987

> <r_i_glide_hbond>
-0.2

> <r_i_glide_metal>
0

> <r_i_glide_rewards>
-1.84476422727273

> <r_i_glide_evdw>
-30.7004013061523

> <r_i_glide_ecoul>
-2.669588804245

> <r_i_glide_erotb>
0.587606020905209

> <r_i_glide_esite>
-0.0246996550534166

> <r_i_glide_emodel>
-45.0610464653694

> <r_i_glide_energy>
-33.3699901103973

> <r_i_glide_einternal>
2.82803559303284

> <i_i_glide_confnum>
53

> <i_i_glide_posenum>
33

> <r_i_glide_eff_state_penalty>
0

> <r_glide_shape_similarity>
0.910283505916595

> <i_phase_Input_Structure_Number>
6

> <i_phase_Structure_Number>
6

> <r_phase_Similarity_to_Reference>
0.873712597684254

> <i_phase_Reference_Structure>
1

> <s_phase_Alignment_Method>
snapped core

> <s_phase_Alignment_Reason>


> <s_phase_Core_SMARTS>
a1aaaaa1AAAAa(aa2)a(a23)aaaa3

> <s_f3d_frozen_atoms>
20 19 18 32 33 17 16 15 14 13 12 4 5 11 6 10 9 8 7 31 42 43 29 30 27 28 25 26 24 23 22 21

> <s_m_subgroup_title>
align_ligands_2

> <s_m_subgroupid>
align_ligands_2

> <b_m_subgroup_collapsed>
0

$$$$
