28
                    3D
 Schrodinger Suite 2021-2.
 41 43  0  0  1  0            999 V2000
    4.1784  -49.4639    6.2203 O   0  0  0  0  0  0
    3.2494  -48.6379    6.3898 C   0  0  0  0  0  0
    3.5057  -47.4203    6.5722 O   0  5  0  0  0  0
    1.8694  -49.1879    6.3561 C   0  0  0  0  0  0
   -0.1751  -50.7678    6.4871 C   0  0  0  0  0  0
   -1.1857  -51.7207    6.5942 C   0  0  0  0  0  0
   -2.5063  -51.3885    6.3255 C   0  0  0  0  0  0
   -2.8117  -50.0805    5.9266 C   0  0  0  0  0  0
   -1.8118  -49.1247    5.7993 C   0  0  0  0  0  0
   -0.4872  -49.4555    6.0836 C   0  0  0  0  0  0
    0.6424  -48.5710    6.0066 C   0  0  0  0  0  0
    0.5308  -47.1337    5.6114 C   0  0  0  0  0  0
    0.4854  -46.1552    6.7424 C   0  0  0  0  0  0
   -0.7882  -46.0224    7.5175 C   0  0  0  0  0  0
   -1.8227  -45.6254    6.6920 O   0  0  0  0  0  0
   -3.1083  -45.4602    7.1320 C   0  0  0  0  0  0
   -3.5177  -46.0130    8.3257 C   0  0  0  0  0  0
   -4.8346  -45.8169    8.7381 C   0  0  0  0  0  0
   -5.7337  -45.0786    7.9666 C   0  0  0  0  0  0
   -5.3052  -44.5292    6.7686 C   0  0  0  0  0  0
   -3.9866  -44.7164    6.3549 C   0  0  0  0  0  0
   -0.9574  -52.7358    6.8883 H   0  0  0  0  0  0
   -3.2795  -52.1372    6.4088 H   0  0  0  0  0  0
   -3.8307  -49.8026    5.6927 H   0  0  0  0  0  0
   -2.0786  -48.1189    5.5066 H   0  0  0  0  0  0
   -0.3582  -46.9924    4.9991 H   0  0  0  0  0  0
    1.3675  -46.8647    4.9614 H   0  0  0  0  0  0
    0.8380  -45.1796    6.4035 H   0  0  0  0  0  0
    1.2465  -46.4397    7.4753 H   0  0  0  0  0  0
   -0.6009  -45.3280    8.3377 H   0  0  0  0  0  0
   -0.9986  -46.9974    7.9390 H   0  0  0  0  0  0
   -3.6858  -44.2881    5.4123 H   0  0  0  0  0  0
    1.5033  -50.7915    6.7395 N   0  0  0  0  0  0
    2.2210  -51.4236    7.0558 H   0  0  0  0  0  0
   -5.9919  -43.9669    6.1542 H   0  0  0  0  0  0
   -6.7421  -44.9052    8.3142 H   0  0  0  0  0  0
   -5.1793  -46.2393    9.6719 H   0  0  0  0  0  0
   -2.6223  -46.8837    9.1521 C   0  0  0  0  0  0
   -3.0927  -47.8660    9.1359 H   0  0  0  0  0  0
   -1.6018  -46.9330    8.7663 H   0  0  0  0  0  0
   -2.5778  -46.5337   10.1817 H   0  0  0  0  0  0
  1  2  2  0  0  0
  2  3  1  0  0  0
  2  4  1  0  0  0
  4 11  2  0  0  0
  4 33  1  0  0  0
  5  6  1  0  0  0
  5 10  2  0  0  0
  5 33  1  0  0  0
  6  7  2  0  0  0
  6 22  1  0  0  0
  7  8  1  0  0  0
  7 23  1  0  0  0
  8  9  2  0  0  0
  8 24  1  0  0  0
  9 10  1  0  0  0
  9 25  1  0  0  0
 10 11  1  0  0  0
 11 12  1  0  0  0
 12 26  1  0  0  0
 12 27  1  0  0  0
 12 13  1  0  0  0
 13 14  1  0  0  0
 13 28  1  0  0  0
 13 29  1  0  0  0
 14 15  1  0  0  0
 14 30  1  0  0  0
 14 31  1  0  0  0
 15 16  1  0  0  0
 16 17  1  0  0  0
 16 21  2  0  0  0
 17 18  2  0  0  0
 17 38  1  0  0  0
 18 19  1  0  0  0
 18 37  1  0  0  0
 19 20  2  0  0  0
 19 36  1  0  0  0
 20 21  1  0  0  0
 20 35  1  0  0  0
 21 32  1  0  0  0
 33 34  1  0  0  0
 38 39  1  0  0  0
 38 40  1  0  0  0
 38 41  1  0  0  0
M  CHG  1   3  -1
M  END
> <s_m_entry_id>
270

> <s_m_entry_name>
MCL1_28.1

> <r_m_Molecular_weight>
308.36021

> <s_m_Source_Path>
C:\Users\yujiethinkpad\Desktop\05A\MCL1\original

> <s_m_Source_File>
MCL1_28.sdf

> <r_user_dG.exp>
-6.62149034253618

> <s_fepmapper_entryid>
14

> <i_fepmapper_bias>
0

> <i_fepmapper_affinity>
1

> <r_fepmapper_exp_dG>
-6.62149034254

> <i_fepmapper_unit>
1

> <i_m_Source_File_Index>
1

> <s_m_job_name>
align_ligands_2

> <s_i_glide_gridfile>
glide-grid_MCL1

> <i_i_glide_lignum>
12

> <i_i_glide_rotatable_bonds>
6

> <r_i_docking_score>
-7.63028211272454

> <r_i_glide_ligand_efficiency>
-0.331751396205415

> <r_i_glide_ligand_efficiency_sa>
-0.943456840202165

> <r_i_glide_ligand_efficiency_ln>
-1.84507140242975

> <r_i_glide_gscore>
-7.63028211272454

> <r_i_glide_lipo>
-4.49267177752494

> <r_i_glide_hbond>
-0.2

> <r_i_glide_metal>
0

> <r_i_glide_rewards>
-1.99836357575758

> <r_i_glide_evdw>
-29.6045570373535

> <r_i_glide_ecoul>
-2.81768846511841

> <r_i_glide_erotb>
0.972874471200538

> <r_i_glide_esite>
-0.00924010900712101

> <r_i_glide_emodel>
-42.1244636373282

> <r_i_glide_energy>
-32.4222455024719

> <r_i_glide_einternal>
2.77263832092285

> <i_i_glide_confnum>
32

> <i_i_glide_posenum>
5

> <r_i_glide_eff_state_penalty>
0

> <r_glide_shape_similarity>
0.882150173187256

> <i_phase_Input_Structure_Number>
35

> <i_phase_Structure_Number>
35

> <r_phase_Similarity_to_Reference>
0.878004403099493

> <i_phase_Reference_Structure>
1

> <s_phase_Alignment_Method>
snapped core

> <s_phase_Alignment_Reason>


> <s_phase_Core_SMARTS>
a1aaaaa1AAAAa(aa2)a(a23)aaaa3

> <s_f3d_frozen_atoms>
17 18 19 20 21 16 15 14 13 12 11 4 33 10 5 9 8 7 6 37 36 35 32 30 31 28 29 26 27 34 25 24 23 22

> <s_m_subgroup_title>
align_ligands_2

> <s_m_subgroupid>
align_ligands_2

> <b_m_subgroup_collapsed>
0

$$$$
