29
                    3D
 Schrodinger Suite 2021-2.
 41 43  0  0  1  0            999 V2000
    4.1784  -49.4639    6.2203 O   0  0  0  0  0  0
    3.2494  -48.6379    6.3898 C   0  0  0  0  0  0
    3.5057  -47.4203    6.5722 O   0  5  0  0  0  0
    1.8694  -49.1879    6.3561 C   0  0  0  0  0  0
   -0.1751  -50.7678    6.4871 C   0  0  0  0  0  0
   -1.1857  -51.7207    6.5942 C   0  0  0  0  0  0
   -2.5063  -51.3885    6.3255 C   0  0  0  0  0  0
   -2.8117  -50.0805    5.9266 C   0  0  0  0  0  0
   -1.8118  -49.1247    5.7993 C   0  0  0  0  0  0
   -0.4872  -49.4555    6.0836 C   0  0  0  0  0  0
    0.6424  -48.5710    6.0066 C   0  0  0  0  0  0
    0.5308  -47.1337    5.6114 C   0  0  0  0  0  0
    0.4854  -46.1552    6.7424 C   0  0  0  0  0  0
   -0.7882  -46.0224    7.5175 C   0  0  0  0  0  0
   -1.8227  -45.6254    6.6920 O   0  0  0  0  0  0
   -3.1083  -45.4602    7.1320 C   0  0  0  0  0  0
   -3.5177  -46.0130    8.3257 C   0  0  0  0  0  0
   -4.8346  -45.8169    8.7381 C   0  0  0  0  0  0
   -5.7337  -45.0786    7.9666 C   0  0  0  0  0  0
   -5.3052  -44.5292    6.7686 C   0  0  0  0  0  0
   -3.9866  -44.7164    6.3549 C   0  0  0  0  0  0
   -0.9449  -52.7225    6.9160 H   0  0  0  0  0  0
   -3.2864  -52.1357    6.4080 H   0  0  0  0  0  0
   -3.8196  -49.7985    5.6674 H   0  0  0  0  0  0
   -2.1100  -48.1320    5.5251 H   0  0  0  0  0  0
   -0.3876  -47.0129    5.0313 H   0  0  0  0  0  0
    1.3188  -46.8339    4.9273 H   0  0  0  0  0  0
    0.5957  -45.2805    6.1807 H   0  0  0  0  0  0
    1.3453  -46.1880    7.3969 H   0  0  0  0  0  0
   -0.6676  -45.2690    8.2897 H   0  0  0  0  0  0
   -0.9768  -46.9746    8.0078 H   0  0  0  0  0  0
   -3.6619  -44.3032    5.4156 H   0  0  0  0  0  0
    1.5033  -50.7915    6.7395 N   0  0  0  0  0  0
    2.2171  -51.4346    7.0725 H   0  0  0  0  0  0
   -5.9917  -43.9823    6.1415 H   0  0  0  0  0  0
   -6.7489  -44.9368    8.3047 H   0  0  0  0  0  0
   -5.1943  -46.2621    9.6540 H   0  0  0  0  0  0
   -2.7814  -46.5534   10.4867 F   0  0  0  0  0  0
   -2.6234  -46.8936    9.1978 C   0  0  0  0  0  0
   -2.9913  -48.1703    9.0535 F   0  0  0  0  0  0
   -1.3260  -46.8141    8.8880 F   0  0  0  0  0  0
  1  2  2  0  0  0
  2  3  1  0  0  0
  2  4  1  0  0  0
  4 11  2  0  0  0
  4 33  1  0  0  0
  5  6  1  0  0  0
  5 10  2  0  0  0
  5 33  1  0  0  0
  6  7  2  0  0  0
  6 22  1  0  0  0
  7  8  1  0  0  0
  7 23  1  0  0  0
  8  9  2  0  0  0
  8 24  1  0  0  0
  9 10  1  0  0  0
  9 25  1  0  0  0
 10 11  1  0  0  0
 11 12  1  0  0  0
 12 26  1  0  0  0
 12 27  1  0  0  0
 12 13  1  0  0  0
 13 14  1  0  0  0
 13 28  1  0  0  0
 13 29  1  0  0  0
 14 15  1  0  0  0
 14 30  1  0  0  0
 14 31  1  0  0  0
 15 16  1  0  0  0
 16 17  1  0  0  0
 16 21  2  0  0  0
 17 18  2  0  0  0
 17 39  1  0  0  0
 18 19  1  0  0  0
 18 37  1  0  0  0
 19 20  2  0  0  0
 19 36  1  0  0  0
 20 21  1  0  0  0
 20 35  1  0  0  0
 21 32  1  0  0  0
 33 34  1  0  0  0
 38 39  1  0  0  0
 39 40  1  0  0  0
 39 41  1  0  0  0
M  CHG  1   3  -1
M  END
> <s_m_entry_id>
252

> <s_m_entry_name>
MCL1_29.1

> <r_m_Molecular_weight>
362.3315

> <s_m_Source_Path>
C:\Users\yujiethinkpad\Desktop\05A\MCL1\original

> <s_m_Source_File>
MCL1_29.sdf

> <r_user_dG.exp>
-6.93940556519089

> <s_fepmapper_entryid>
22

> <i_fepmapper_bias>
0

> <i_fepmapper_affinity>
1

> <r_fepmapper_exp_dG>
-6.93940556519

> <i_fepmapper_unit>
1

> <i_m_Source_File_Index>
1

> <s_m_job_name>
align_ligands_2

> <s_i_glide_gridfile>
glide-grid_MCL1

> <i_i_glide_lignum>
13

> <i_i_glide_rotatable_bonds>
7

> <r_i_docking_score>
-8.49905141300138

> <r_i_glide_ligand_efficiency>
-0.326886592807745

> <r_i_glide_ligand_efficiency_sa>
-0.968400244956313

> <r_i_glide_ligand_efficiency_ln>
-1.99597433668107

> <r_i_glide_gscore>
-8.49905141300138

> <r_i_glide_lipo>
-4.35745160273058

> <r_i_glide_hbond>
-0.2

> <r_i_glide_metal>
0

> <r_i_glide_rewards>
-3.0213408847354

> <r_i_glide_evdw>
-26.5850715637207

> <r_i_glide_ecoul>
-2.08719635009766

> <r_i_glide_erotb>
0.731300272525245

> <r_i_glide_esite>
-0.00922616735996076

> <r_i_glide_emodel>
-35.8520801251833

> <r_i_glide_energy>
-28.6722679138184

> <r_i_glide_einternal>
7.56998538970947

> <i_i_glide_confnum>
63

> <i_i_glide_posenum>
138

> <r_i_glide_eff_state_penalty>
0

> <r_glide_shape_similarity>
0.897907733917236

> <i_phase_Input_Structure_Number>
17

> <i_phase_Structure_Number>
17

> <r_phase_Similarity_to_Reference>
0.869203934211702

> <i_phase_Reference_Structure>
1

> <s_phase_Alignment_Method>
snapped core

> <s_phase_Alignment_Reason>


> <s_phase_Core_SMARTS>
a1aaaaa1AAAAa(aa2)a(a23)aaaa3

> <s_f3d_frozen_atoms>
17 18 19 20 21 16 15 14 13 12 11 4 33 10 5 9 8 7 6 37 36 35 32 30 31 28 29 26 27 34 25 24 23 22

> <s_m_subgroup_title>
align_ligands_2

> <s_m_subgroupid>
align_ligands_2

> <b_m_subgroup_collapsed>
0

$$$$
