38
                    3D
 Schrodinger Suite 2021-2.
 48 51  0  0  1  0            999 V2000
    4.1784  -49.4639    6.2203 O   0  0  0  0  0  0
    3.2494  -48.6379    6.3898 C   0  0  0  0  0  0
    3.5057  -47.4203    6.5722 O   0  5  0  0  0  0
    1.8694  -49.1879    6.3561 C   0  0  0  0  0  0
   -0.1751  -50.7678    6.4871 C   0  0  0  0  0  0
   -1.1857  -51.7207    6.5942 C   0  0  0  0  0  0
   -2.5063  -51.3885    6.3255 C   0  0  0  0  0  0
   -2.8117  -50.0805    5.9266 C   0  0  0  0  0  0
   -1.8118  -49.1247    5.7993 C   0  0  0  0  0  0
   -0.4872  -49.4555    6.0836 C   0  0  0  0  0  0
    0.6424  -48.5710    6.0066 C   0  0  0  0  0  0
    0.5308  -47.1337    5.6114 C   0  0  0  0  0  0
    0.4854  -46.1552    6.7424 C   0  0  0  0  0  0
   -0.7882  -46.0224    7.5175 C   0  0  0  0  0  0
   -1.8227  -45.6254    6.6920 O   0  0  0  0  0  0
   -3.1083  -45.4602    7.1320 C   0  0  0  0  0  0
   -3.9866  -44.7164    6.3549 C   0  0  0  0  0  0
   -5.3052  -44.5292    6.7686 C   0  0  0  0  0  0
   -5.7337  -45.0786    7.9666 C   0  0  0  0  0  0
   -4.8346  -45.8169    8.7381 C   0  0  0  0  0  0
   -3.5177  -46.0130    8.3257 C   0  0  0  0  0  0
   -0.9458  -52.7314    6.8862 H   0  0  0  0  0  0
   -3.2850  -52.1360    6.3757 H   0  0  0  0  0  0
   -3.8312  -49.8087    5.7036 H   0  0  0  0  0  0
   -2.0869  -48.1295    5.5063 H   0  0  0  0  0  0
    1.3249  -46.8598    4.9166 H   0  0  0  0  0  0
   -0.3737  -47.0265    5.0810 H   0  0  0  0  0  0
    1.2846  -46.3339    7.4597 H   0  0  0  0  0  0
    0.6810  -45.1587    6.3513 H   0  0  0  0  0  0
   -1.0010  -46.9981    7.9271 H   0  0  0  0  0  0
   -0.7227  -45.4041    8.4077 H   0  0  0  0  0  0
   -3.6595  -44.3076    5.4102 H   0  0  0  0  0  0
   -2.8518  -46.5858    8.9316 H   0  0  0  0  0  0
    1.5033  -50.7915    6.7395 N   0  0  0  0  0  0
    2.2195  -51.4242    7.0791 H   0  0  0  0  0  0
   -5.1900  -46.2772    9.6413 H   0  0  0  0  0  0
   -6.7829  -45.0532    8.2227 H   0  0  0  0  0  0
   -8.7438  -43.0518    4.7348 C   0  0  0  0  0  0
   -8.1888  -44.2965    4.3854 C   0  0  0  0  0  0
   -6.9860  -44.7071    4.9819 C   0  0  0  0  0  0
   -6.3655  -43.9144    5.9744 C   0  0  0  0  0  0
   -6.9236  -42.6641    6.3234 C   0  0  0  0  0  0
   -8.1005  -42.2235    5.6838 C   0  0  0  0  0  0
   -9.6605  -42.7305    4.2648 H   0  0  0  0  0  0
   -8.6843  -44.9299    3.6660 H   0  0  0  0  0  0
   -6.5741  -45.6710    4.7167 H   0  0  0  0  0  0
   -6.4702  -42.0650    7.0998 H   0  0  0  0  0  0
   -8.5239  -41.2676    5.9476 H   0  0  0  0  0  0
  1  2  2  0  0  0
  2  3  1  0  0  0
  2  4  1  0  0  0
  4 11  2  0  0  0
  4 34  1  0  0  0
  5  6  1  0  0  0
  5 10  2  0  0  0
  5 34  1  0  0  0
  6  7  2  0  0  0
  6 22  1  0  0  0
  7  8  1  0  0  0
  7 23  1  0  0  0
  8  9  2  0  0  0
  8 24  1  0  0  0
  9 10  1  0  0  0
  9 25  1  0  0  0
 10 11  1  0  0  0
 11 12  1  0  0  0
 12 26  1  0  0  0
 12 27  1  0  0  0
 12 13  1  0  0  0
 13 14  1  0  0  0
 13 28  1  0  0  0
 13 29  1  0  0  0
 14 15  1  0  0  0
 14 30  1  0  0  0
 14 31  1  0  0  0
 15 16  1  0  0  0
 16 17  1  0  0  0
 16 21  2  0  0  0
 17 18  2  0  0  0
 17 32  1  0  0  0
 18 19  1  0  0  0
 18 41  1  0  0  0
 19 20  2  0  0  0
 19 37  1  0  0  0
 20 21  1  0  0  0
 20 36  1  0  0  0
 21 33  1  0  0  0
 34 35  1  0  0  0
 38 39  2  0  0  0
 38 43  1  0  0  0
 38 44  1  0  0  0
 39 40  1  0  0  0
 39 45  1  0  0  0
 40 41  2  0  0  0
 40 46  1  0  0  0
 41 42  1  0  0  0
 42 43  2  0  0  0
 42 47  1  0  0  0
 43 48  1  0  0  0
M  CHG  1   3  -1
M  END
> <s_m_entry_id>
248

> <s_m_entry_name>
MCL1_38.1

> <r_m_Molecular_weight>
370.4319

> <s_m_Source_Path>
C:\Users\yujiethinkpad\Desktop\05A\MCL1\original

> <s_m_Source_File>
MCL1_38.sdf

> <r_user_dG.exp>
-7.01900763427615

> <s_fepmapper_entryid>
11

> <i_fepmapper_bias>
0

> <i_fepmapper_affinity>
1

> <r_fepmapper_exp_dG>
-7.01900763428

> <i_fepmapper_unit>
1

> <i_m_Source_File_Index>
1

> <s_m_job_name>
align_ligands_2

> <s_i_glide_gridfile>
glide-grid_MCL1

> <i_i_glide_lignum>
22

> <i_i_glide_rotatable_bonds>
7

> <r_i_docking_score>
-8.77637832975284

> <r_i_glide_ligand_efficiency>
-0.313442083205459

> <r_i_glide_ligand_efficiency_sa>
-0.951794772126238

> <r_i_glide_ligand_efficiency_ln>
-2.02584580417186

> <r_i_glide_gscore>
-8.77637832975284

> <r_i_glide_lipo>
-5.83810924375205

> <r_i_glide_hbond>
-0.156962966405781

> <r_i_glide_metal>
0

> <r_i_glide_rewards>
-1.77413906406836

> <r_i_glide_evdw>
-32.5621566772461

> <r_i_glide_ecoul>
-1.43113780021667

> <r_i_glide_erotb>
0.843599049903382

> <r_i_glide_esite>
-0.00798760153522125

> <r_i_glide_emodel>
-23.8067943646046

> <r_i_glide_energy>
-33.9932944774628

> <r_i_glide_einternal>
5.76058483123779

> <i_i_glide_confnum>
39

> <i_i_glide_posenum>
196

> <r_i_glide_eff_state_penalty>
0

> <r_glide_shape_similarity>
0.674693465232849

> <i_phase_Input_Structure_Number>
13

> <i_phase_Structure_Number>
13

> <r_phase_Similarity_to_Reference>
0.786367126822752

> <i_phase_Reference_Structure>
1

> <s_phase_Alignment_Method>
snapped core

> <s_phase_Alignment_Reason>


> <s_phase_Core_SMARTS>
a1aaaaa1AAAAa(aa2)a(a23)aaaa3

> <s_f3d_frozen_atoms>
21 20 19 18 17 16 15 14 13 12 11 4 34 10 5 9 8 7 6 33 36 37 32 30 31 28 29 26 27 35 25 24 23 22

> <s_m_subgroup_title>
align_ligands_2

> <s_m_subgroupid>
align_ligands_2

> <b_m_subgroup_collapsed>
0

$$$$
