39
                    3D
 Schrodinger Suite 2021-2.
 48 51  0  0  1  0            999 V2000
    4.1784  -49.4639    6.2203 O   0  0  0  0  0  0
    3.2494  -48.6379    6.3898 C   0  0  0  0  0  0
    3.5057  -47.4203    6.5722 O   0  5  0  0  0  0
    1.8694  -49.1879    6.3561 C   0  0  0  0  0  0
   -0.1751  -50.7678    6.4871 C   0  0  0  0  0  0
   -1.1857  -51.7207    6.5942 C   0  0  0  0  0  0
   -2.5063  -51.3885    6.3255 C   0  0  0  0  0  0
   -2.8117  -50.0805    5.9266 C   0  0  0  0  0  0
   -1.8118  -49.1247    5.7993 C   0  0  0  0  0  0
   -0.4872  -49.4555    6.0836 C   0  0  0  0  0  0
    0.6424  -48.5710    6.0066 C   0  0  0  0  0  0
    0.5308  -47.1337    5.6114 C   0  0  0  0  0  0
    0.4854  -46.1552    6.7424 C   0  0  0  0  0  0
   -0.7882  -46.0224    7.5175 C   0  0  0  0  0  0
   -1.8227  -45.6254    6.6920 O   0  0  0  0  0  0
   -3.1083  -45.4602    7.1320 C   0  0  0  0  0  0
   -3.9866  -44.7164    6.3549 C   0  0  0  0  0  0
   -5.3052  -44.5292    6.7686 C   0  0  0  0  0  0
   -5.7337  -45.0786    7.9666 C   0  0  0  0  0  0
   -4.8346  -45.8169    8.7381 C   0  0  0  0  0  0
   -3.5177  -46.0130    8.3257 C   0  0  0  0  0  0
   -0.9472  -52.7259    6.9065 H   0  0  0  0  0  0
   -3.2876  -52.1308    6.4153 H   0  0  0  0  0  0
   -3.8298  -49.8113    5.6866 H   0  0  0  0  0  0
   -2.0732  -48.1366    5.4819 H   0  0  0  0  0  0
    1.3408  -46.8562    4.9391 H   0  0  0  0  0  0
   -0.3466  -46.9727    5.0025 H   0  0  0  0  0  0
    1.2336  -46.4029    7.4824 H   0  0  0  0  0  0
    0.7256  -45.1504    6.4004 H   0  0  0  0  0  0
   -1.0197  -46.9170    8.0832 H   0  0  0  0  0  0
   -0.6885  -45.2309    8.2565 H   0  0  0  0  0  0
   -3.6808  -44.3496    5.4105 H   0  0  0  0  0  0
   -2.8513  -46.5963    8.9350 H   0  0  0  0  0  0
    1.5033  -50.7915    6.7395 N   0  0  0  0  0  0
    2.2292  -51.4249    7.0552 H   0  0  0  0  0  0
   -5.2062  -46.3722    9.5841 H   0  0  0  0  0  0
   -5.9663  -43.9507    6.1453 H   0  0  0  0  0  0
   -9.8036  -44.6364    9.2138 C   0  0  0  0  0  0
   -8.7987  -44.7865   10.1620 C   0  0  0  0  0  0
   -7.4769  -44.9301    9.7570 C   0  0  0  0  0  0
   -7.1602  -44.9236    8.4037 C   0  0  0  0  0  0
   -8.1652  -44.7736    7.4555 C   0  0  0  0  0  0
   -9.4869  -44.6300    7.8605 C   0  0  0  0  0  0
  -10.8327  -44.5247    9.5291 H   0  0  0  0  0  0
   -9.0453  -44.7915   11.2155 H   0  0  0  0  0  0
   -6.6945  -45.0469   10.4952 H   0  0  0  0  0  0
   -7.9186  -44.7685    6.4019 H   0  0  0  0  0  0
  -10.2693  -44.5131    7.1223 H   0  0  0  0  0  0
  1  2  2  0  0  0
  2  3  1  0  0  0
  2  4  1  0  0  0
  4 11  2  0  0  0
  4 34  1  0  0  0
  5  6  1  0  0  0
  5 10  2  0  0  0
  5 34  1  0  0  0
  6  7  2  0  0  0
  6 22  1  0  0  0
  7  8  1  0  0  0
  7 23  1  0  0  0
  8  9  2  0  0  0
  8 24  1  0  0  0
  9 10  1  0  0  0
  9 25  1  0  0  0
 10 11  1  0  0  0
 11 12  1  0  0  0
 12 26  1  0  0  0
 12 27  1  0  0  0
 12 13  1  0  0  0
 13 14  1  0  0  0
 13 28  1  0  0  0
 13 29  1  0  0  0
 14 15  1  0  0  0
 14 30  1  0  0  0
 14 31  1  0  0  0
 15 16  1  0  0  0
 16 17  1  0  0  0
 16 21  2  0  0  0
 17 18  2  0  0  0
 17 32  1  0  0  0
 18 19  1  0  0  0
 18 37  1  0  0  0
 19 20  2  0  0  0
 19 41  1  0  0  0
 20 21  1  0  0  0
 20 36  1  0  0  0
 21 33  1  0  0  0
 34 35  1  0  0  0
 38 39  2  0  0  0
 38 43  1  0  0  0
 38 44  1  0  0  0
 39 40  1  0  0  0
 39 45  1  0  0  0
 40 41  2  0  0  0
 40 46  1  0  0  0
 41 42  1  0  0  0
 42 43  2  0  0  0
 42 47  1  0  0  0
 43 48  1  0  0  0
M  CHG  1   3  -1
M  END
> <s_m_entry_id>
258

> <s_m_entry_name>
MCL1_39.1

> <r_m_Molecular_weight>
370.4319

> <s_m_Source_Path>
C:\Users\yujiethinkpad\Desktop\05A\MCL1\original

> <s_m_Source_File>
MCL1_39.sdf

> <r_user_dG.exp>
-7.02680029426089

> <s_fepmapper_entryid>
16

> <i_fepmapper_bias>
0

> <i_fepmapper_affinity>
1

> <r_fepmapper_exp_dG>
-7.02680029426

> <i_fepmapper_unit>
1

> <i_m_Source_File_Index>
1

> <s_m_job_name>
align_ligands_2

> <s_i_glide_gridfile>
glide-grid_MCL1

> <i_i_glide_lignum>
23

> <i_i_glide_rotatable_bonds>
7

> <r_i_docking_score>
-8.3359143110862

> <r_i_glide_ligand_efficiency>
-0.297711225395936

> <r_i_glide_ligand_efficiency_sa>
-0.904026622836754

> <r_i_glide_ligand_efficiency_ln>
-1.92417377607805

> <r_i_glide_gscore>
-8.3359143110862

> <r_i_glide_lipo>
-6.02391281071363

> <r_i_glide_hbond>
-0.043444356576976

> <r_i_glide_metal>
0

> <r_i_glide_rewards>
-1.78349162572109

> <r_i_glide_evdw>
-29.2750568389893

> <r_i_glide_ecoul>
0.902155756950378

> <r_i_glide_erotb>
0.843599049903382

> <r_i_glide_esite>
-0.000235089570982064

> <r_i_glide_emodel>
-18.4827087731359

> <r_i_glide_energy>
-28.3729010820389

> <r_i_glide_einternal>
6.52015495300293

> <i_i_glide_confnum>
100

> <i_i_glide_posenum>
296

> <r_i_glide_eff_state_penalty>
0

> <r_glide_shape_similarity>
0.701747179031372

> <i_phase_Input_Structure_Number>
23

> <i_phase_Structure_Number>
23

> <r_phase_Similarity_to_Reference>
0.760199706330333

> <i_phase_Reference_Structure>
1

> <s_phase_Alignment_Method>
snapped core

> <s_phase_Alignment_Reason>


> <s_phase_Core_SMARTS>
a1aaaaa1AAAAa(aa2)a(a23)aaaa3

> <s_f3d_frozen_atoms>
21 20 19 18 17 16 15 14 13 12 11 4 34 10 5 9 8 7 6 33 36 37 32 30 31 28 29 26 27 35 25 24 23 22

> <s_m_subgroup_title>
align_ligands_2

> <s_m_subgroupid>
align_ligands_2

> <b_m_subgroup_collapsed>
0

$$$$
