41
                    3D
 Schrodinger Suite 2021-2.
 49 52  0  0  1  0            999 V2000
    4.1784  -49.4639    6.2203 O   0  0  0  0  0  0
    3.2494  -48.6379    6.3898 C   0  0  0  0  0  0
    3.5057  -47.4203    6.5722 O   0  5  0  0  0  0
    1.8694  -49.1879    6.3561 C   0  0  0  0  0  0
   -0.1751  -50.7678    6.4871 C   0  0  0  0  0  0
   -1.1857  -51.7207    6.5942 C   0  0  0  0  0  0
   -2.5063  -51.3885    6.3255 C   0  0  0  0  0  0
   -2.8117  -50.0805    5.9266 C   0  0  0  0  0  0
   -1.8118  -49.1247    5.7993 C   0  0  0  0  0  0
   -0.4872  -49.4555    6.0836 C   0  0  0  0  0  0
    0.6424  -48.5710    6.0066 C   0  0  0  0  0  0
    0.5308  -47.1337    5.6114 C   0  0  0  0  0  0
    0.4854  -46.1552    6.7424 C   0  0  0  0  0  0
   -0.7882  -46.0224    7.5175 C   0  0  0  0  0  0
   -1.8227  -45.6254    6.6920 O   0  0  0  0  0  0
   -3.1083  -45.4602    7.1320 C   0  0  0  0  0  0
   -3.5177  -46.0130    8.3257 C   0  0  0  0  0  0
   -4.8346  -45.8169    8.7381 C   0  0  0  0  0  0
   -5.7337  -45.0786    7.9666 C   0  0  0  0  0  0
   -5.3052  -44.5292    6.7686 C   0  0  0  0  0  0
   -3.9866  -44.7164    6.3549 C   0  0  0  0  0  0
   -0.9426  -52.7195    6.9197 H   0  0  0  0  0  0
   -3.2888  -52.1288    6.4130 H   0  0  0  0  0  0
   -3.8369  -49.8340    5.7086 H   0  0  0  0  0  0
   -2.0656  -48.1206    5.5270 H   0  0  0  0  0  0
    1.3964  -46.8748    5.0015 H   0  0  0  0  0  0
   -0.3211  -46.9714    4.9533 H   0  0  0  0  0  0
    1.2721  -46.3791    7.4645 H   0  0  0  0  0  0
    0.7023  -45.1596    6.3583 H   0  0  0  0  0  0
   -0.9933  -46.9074    8.1147 H   0  0  0  0  0  0
   -0.7166  -45.1975    8.2229 H   0  0  0  0  0  0
   -2.8574  -46.6123    8.9249 H   0  0  0  0  0  0
   -3.6402  -44.0954    5.5464 H   0  0  0  0  0  0
    1.5033  -50.7915    6.7395 N   0  0  0  0  0  0
    2.2321  -51.4222    7.0596 H   0  0  0  0  0  0
   -6.0403  -44.1476    6.0751 H   0  0  0  0  0  0
   -5.1871  -46.2619    9.6467 H   0  0  0  0  0  0
   -7.0519  -44.9592    8.3571 O   0  0  0  0  0  0
   -9.4388  -42.6883    5.8176 C   0  0  0  0  0  0
   -9.9974  -43.7286    6.5507 C   0  0  0  0  0  0
   -9.1999  -44.4873    7.3992 C   0  0  0  0  0  0
   -7.8438  -44.2058    7.5146 C   0  0  0  0  0  0
   -7.2852  -43.1656    6.7815 C   0  0  0  0  0  0
   -8.0827  -42.4068    5.9330 C   0  0  0  0  0  0
  -10.0597  -42.0976    5.1570 H   0  0  0  0  0  0
  -11.0532  -43.9478    6.4609 H   0  0  0  0  0  0
   -9.6348  -45.2972    7.9700 H   0  0  0  0  0  0
   -6.2294  -42.9464    6.8713 H   0  0  0  0  0  0
   -7.6478  -41.5969    5.3623 H   0  0  0  0  0  0
  1  2  2  0  0  0
  2  3  1  0  0  0
  2  4  1  0  0  0
  4 11  2  0  0  0
  4 34  1  0  0  0
  5  6  1  0  0  0
  5 10  2  0  0  0
  5 34  1  0  0  0
  6  7  2  0  0  0
  6 22  1  0  0  0
  7  8  1  0  0  0
  7 23  1  0  0  0
  8  9  2  0  0  0
  8 24  1  0  0  0
  9 10  1  0  0  0
  9 25  1  0  0  0
 10 11  1  0  0  0
 11 12  1  0  0  0
 12 26  1  0  0  0
 12 27  1  0  0  0
 12 13  1  0  0  0
 13 14  1  0  0  0
 13 28  1  0  0  0
 13 29  1  0  0  0
 14 15  1  0  0  0
 14 30  1  0  0  0
 14 31  1  0  0  0
 15 16  1  0  0  0
 16 17  1  0  0  0
 16 21  2  0  0  0
 17 18  2  0  0  0
 17 32  1  0  0  0
 18 19  1  0  0  0
 18 37  1  0  0  0
 19 20  2  0  0  0
 19 38  1  0  0  0
 20 21  1  0  0  0
 20 36  1  0  0  0
 21 33  1  0  0  0
 34 35  1  0  0  0
 38 42  1  0  0  0
 39 40  2  0  0  0
 39 44  1  0  0  0
 39 45  1  0  0  0
 40 41  1  0  0  0
 40 46  1  0  0  0
 41 42  2  0  0  0
 41 47  1  0  0  0
 42 43  1  0  0  0
 43 44  2  0  0  0
 43 48  1  0  0  0
 44 49  1  0  0  0
M  CHG  1   3  -1
M  END
> <s_m_entry_id>
277

> <s_m_entry_name>
MCL1_41.1

> <r_m_Molecular_weight>
386.4313

> <s_m_Source_Path>
C:\Users\yujiethinkpad\Desktop\05A\MCL1\original

> <s_m_Source_File>
MCL1_41.sdf

> <r_user_dG.exp>
-7.12924538792258

> <s_fepmapper_entryid>
28

> <i_fepmapper_bias>
0

> <i_fepmapper_affinity>
1

> <r_fepmapper_exp_dG>
-7.12924538792

> <i_fepmapper_unit>
1

> <i_m_Source_File_Index>
1

> <s_m_job_name>
align_ligands_2

> <s_i_glide_gridfile>
glide-grid_MCL1

> <i_i_glide_lignum>
25

> <i_i_glide_rotatable_bonds>
8

> <r_i_docking_score>
-7.07360387708903

> <r_i_glide_ligand_efficiency>
-0.243917375072035

> <r_i_glide_ligand_efficiency_sa>
-0.749391454669799

> <r_i_glide_ligand_efficiency_ln>
-1.61967591673563

> <r_i_glide_gscore>
-7.07360387708903

> <r_i_glide_lipo>
-5.36102822950599

> <r_i_glide_hbond>
0

> <r_i_glide_metal>
0

> <r_i_glide_rewards>
-1.24575439482851

> <r_i_glide_evdw>
-30.6835060119629

> <r_i_glide_ecoul>
1.03291451931

> <r_i_glide_erotb>
0.912416869947118

> <r_i_glide_esite>
0

> <r_i_glide_emodel>
-19.6098438769478

> <r_i_glide_energy>
-29.6505914926529

> <r_i_glide_einternal>
3.88596510887146

> <i_i_glide_confnum>
41

> <i_i_glide_posenum>
177

> <r_i_glide_eff_state_penalty>
0

> <r_glide_shape_similarity>
0.687286794185638

> <i_phase_Input_Structure_Number>
42

> <i_phase_Structure_Number>
42

> <r_phase_Similarity_to_Reference>
0.762004037983512

> <i_phase_Reference_Structure>
1

> <s_phase_Alignment_Method>
snapped core

> <s_phase_Alignment_Reason>


> <s_phase_Core_SMARTS>
a1aaaaa1AAAAa(aa2)a(a23)aaaa3

> <s_f3d_frozen_atoms>
17 18 19 20 21 16 15 14 13 12 11 4 34 10 5 9 8 7 6 32 37 36 33 30 31 28 29 26 27 35 25 24 23 22

> <s_m_subgroup_title>
align_ligands_2

> <s_m_subgroupid>
align_ligands_2

> <b_m_subgroup_collapsed>
0

$$$$
