43
                    3D
 Schrodinger Suite 2021-2.
 44 47  0  0  1  0            999 V2000
    4.1784  -49.4639    6.2203 O   0  0  0  0  0  0
    3.2494  -48.6379    6.3898 C   0  0  0  0  0  0
    3.5057  -47.4203    6.5722 O   0  5  0  0  0  0
    1.8694  -49.1879    6.3561 C   0  0  0  0  0  0
   -0.1751  -50.7678    6.4871 C   0  0  0  0  0  0
   -1.1857  -51.7207    6.5942 C   0  0  0  0  0  0
   -2.5063  -51.3885    6.3255 C   0  0  0  0  0  0
   -2.8117  -50.0805    5.9266 C   0  0  0  0  0  0
   -1.8118  -49.1247    5.7993 C   0  0  0  0  0  0
   -0.4872  -49.4555    6.0836 C   0  0  0  0  0  0
    0.6424  -48.5710    6.0066 C   0  0  0  0  0  0
    0.5308  -47.1337    5.6114 C   0  0  0  0  0  0
    0.4854  -46.1552    6.7424 C   0  0  0  0  0  0
   -0.7882  -46.0224    7.5175 C   0  0  0  0  0  0
   -1.8227  -45.6254    6.6920 O   0  0  0  0  0  0
   -3.1083  -45.4602    7.1320 C   0  0  0  0  0  0
   -4.8346  -45.8169    8.7381 C   0  0  0  0  0  0
   -3.5177  -46.0130    8.3257 C   0  0  0  0  0  0
   -0.9541  -52.7311    6.8906 H   0  0  0  0  0  0
   -3.2808  -52.1339    6.4219 H   0  0  0  0  0  0
   -3.8330  -49.8020    5.7009 H   0  0  0  0  0  0
   -2.0708  -48.1192    5.4999 H   0  0  0  0  0  0
    1.3676  -46.8630    4.9708 H   0  0  0  0  0  0
   -0.3360  -46.9930    4.9722 H   0  0  0  0  0  0
    1.2850  -46.3458    7.4581 H   0  0  0  0  0  0
    0.6888  -45.1623    6.3370 H   0  0  0  0  0  0
   -1.0983  -46.9698    7.9516 H   0  0  0  0  0  0
   -0.6669  -45.2989    8.3264 H   0  0  0  0  0  0
   -2.8092  -46.5611    8.9432 H   0  0  0  0  0  0
   -3.9866  -44.7164    6.3549 C   0  0  0  0  0  0
   -5.1698  -46.2015    9.6872 H   0  0  0  0  0  0
   -5.3052  -44.5292    6.7686 C   0  0  0  0  0  0
   -5.7337  -45.0786    7.9666 C   0  0  0  0  0  0
   -7.0365  -44.8624    8.4383 C   0  0  0  0  0  0
   -7.8971  -44.0843    7.6447 C   0  0  0  0  0  0
   -7.5277  -43.6000    6.3654 C   0  0  0  0  0  0
   -6.1417  -43.7561    5.9402 C   0  0  0  0  0  0
   -7.3669  -45.2551    9.3885 H   0  0  0  0  0  0
   -8.8847  -43.8723    7.9965 H   0  0  0  0  0  0
   -8.2327  -43.0762    5.7428 H   0  0  0  0  0  0
   -5.7685  -43.3057    5.0281 H   0  0  0  0  0  0
   -3.6875  -44.2566    5.4290 H   0  0  0  0  0  0
    1.5033  -50.7915    6.7395 N   0  0  0  0  0  0
    2.2165  -51.4341    7.0748 H   0  0  0  0  0  0
  1  2  2  0  0  0
  2  3  1  0  0  0
  2  4  1  0  0  0
  4 11  2  0  0  0
  4 43  1  0  0  0
  5  6  1  0  0  0
  5 10  2  0  0  0
  5 43  1  0  0  0
  6  7  2  0  0  0
  6 19  1  0  0  0
  7  8  1  0  0  0
  7 20  1  0  0  0
  8  9  2  0  0  0
  8 21  1  0  0  0
  9 10  1  0  0  0
  9 22  1  0  0  0
 10 11  1  0  0  0
 11 12  1  0  0  0
 12 23  1  0  0  0
 12 24  1  0  0  0
 12 13  1  0  0  0
 13 14  1  0  0  0
 13 25  1  0  0  0
 13 26  1  0  0  0
 14 15  1  0  0  0
 14 27  1  0  0  0
 14 28  1  0  0  0
 15 16  1  0  0  0
 16 18  2  0  0  0
 16 30  1  0  0  0
 17 18  1  0  0  0
 17 31  1  0  0  0
 17 33  2  0  0  0
 18 29  1  0  0  0
 30 32  2  0  0  0
 30 42  1  0  0  0
 32 33  1  0  0  0
 32 37  1  0  0  0
 33 34  1  0  0  0
 34 35  2  0  0  0
 34 38  1  0  0  0
 35 36  1  0  0  0
 35 39  1  0  0  0
 36 37  2  0  0  0
 36 40  1  0  0  0
 37 41  1  0  0  0
 43 44  1  0  0  0
M  CHG  1   3  -1
M  END
> <s_m_entry_id>
253

> <s_m_entry_name>
MCL1_43.1

> <r_m_Molecular_weight>
344.39366

> <s_m_Source_Path>
C:\Users\yujiethinkpad\Desktop\05A\MCL1\original

> <s_m_Source_File>
MCL1_43.sdf

> <r_user_dG.exp>
-7.03469617128338

> <s_fepmapper_entryid>
43

> <i_fepmapper_bias>
0

> <i_fepmapper_affinity>
1

> <r_fepmapper_exp_dG>
-7.03469617128

> <i_fepmapper_unit>
1

> <i_m_Source_File_Index>
1

> <s_m_job_name>
align_ligands_2

> <s_i_glide_gridfile>
glide-grid_MCL1

> <i_i_glide_lignum>
27

> <i_i_glide_rotatable_bonds>
6

> <r_i_docking_score>
-8.46817643309802

> <r_i_glide_ligand_efficiency>
-0.325699093580693

> <r_i_glide_ligand_efficiency_sa>
-0.964882283168754

> <r_i_glide_ligand_efficiency_ln>
-1.98872344895984

> <r_i_glide_gscore>
-8.46817643309802

> <r_i_glide_lipo>
-5.37876288774877

> <r_i_glide_hbond>
-0.2

> <r_i_glide_metal>
0

> <r_i_glide_rewards>
-1.86093394363662

> <r_i_glide_evdw>
-23.6024265289307

> <r_i_glide_ecoul>
-3.18922305107117

> <r_i_glide_erotb>
0.640363311436548

> <r_i_glide_esite>
-0.0103381290419692

> <r_i_glide_emodel>
-32.2524707355411

> <r_i_glide_energy>
-26.7916495800018

> <r_i_glide_einternal>
4.61648511886597

> <i_i_glide_confnum>
39

> <i_i_glide_posenum>
33

> <r_i_glide_eff_state_penalty>
0

> <r_glide_shape_similarity>
0.88849264383316

> <i_phase_Input_Structure_Number>
18

> <i_phase_Structure_Number>
18

> <r_phase_Similarity_to_Reference>
0.864955098014906

> <i_phase_Reference_Structure>
1

> <s_phase_Alignment_Method>
snapped core

> <s_phase_Alignment_Reason>


> <s_phase_Core_SMARTS>
a1aaaaa1AAAAa(aa2)a(a23)aaaa3

> <s_f3d_frozen_atoms>
18 17 33 32 30 16 15 14 13 12 11 4 43 10 5 9 8 7 6 29 31 42 27 28 25 26 23 24 44 22 21 20 19

> <s_m_subgroup_title>
align_ligands_2

> <s_m_subgroupid>
align_ligands_2

> <b_m_subgroup_collapsed>
0

$$$$
