45
                    3D
 Schrodinger Suite 2021-2.
 48 51  0  0  1  0            999 V2000
    4.1784  -49.4639    6.2203 O   0  0  0  0  0  0
    3.2494  -48.6379    6.3898 C   0  0  0  0  0  0
    3.5057  -47.4203    6.5722 O   0  5  0  0  0  0
    1.8694  -49.1879    6.3561 C   0  0  0  0  0  0
   -0.1751  -50.7678    6.4871 C   0  0  0  0  0  0
   -1.1857  -51.7207    6.5942 C   0  0  0  0  0  0
   -2.5063  -51.3885    6.3255 C   0  0  0  0  0  0
   -2.8117  -50.0805    5.9266 C   0  0  0  0  0  0
   -1.8118  -49.1247    5.7993 C   0  0  0  0  0  0
   -0.4872  -49.4555    6.0836 C   0  0  0  0  0  0
    0.6424  -48.5710    6.0066 C   0  0  0  0  0  0
    0.5308  -47.1337    5.6114 C   0  0  0  0  0  0
    0.4854  -46.1552    6.7424 C   0  0  0  0  0  0
   -0.7882  -46.0224    7.5175 C   0  0  0  0  0  0
   -1.8227  -45.6254    6.6920 O   0  0  0  0  0  0
   -3.1083  -45.4602    7.1320 C   0  0  0  0  0  0
   -5.7337  -45.0786    7.9666 C   0  0  0  0  0  0
   -4.8346  -45.8169    8.7381 C   0  0  0  0  0  0
   -3.5177  -46.0130    8.3257 C   0  0  0  0  0  0
   -0.9503  -52.7299    6.8970 H   0  0  0  0  0  0
   -3.2821  -52.1348    6.4235 H   0  0  0  0  0  0
   -3.8327  -49.8060    5.7005 H   0  0  0  0  0  0
   -2.0750  -48.1201    5.5011 H   0  0  0  0  0  0
    1.3633  -46.8623    4.9612 H   0  0  0  0  0  0
   -0.3614  -46.9960    5.0016 H   0  0  0  0  0  0
    1.2459  -46.4472    7.4668 H   0  0  0  0  0  0
    0.8022  -45.1717    6.4004 H   0  0  0  0  0  0
   -1.0196  -47.0095    7.8957 H   0  0  0  0  0  0
   -0.6193  -45.3501    8.3602 H   0  0  0  0  0  0
   -2.8511  -46.5898    8.9444 H   0  0  0  0  0  0
   -5.3052  -44.5292    6.7686 C   0  0  0  0  0  0
   -3.9866  -44.7164    6.3549 C   0  0  0  0  0  0
   -3.4947  -44.2023    5.0009 C   0  0  0  0  0  0
   -4.4546  -43.2496    4.2698 C   0  0  0  0  0  0
   -5.9324  -43.6622    4.4351 C   0  0  0  0  0  0
   -6.3466  -43.8286    5.8945 C   0  0  0  0  0  0
   -5.1525  -46.2635    9.6638 H   0  0  0  0  0  0
   -6.7682  -45.0079    8.2708 H   0  0  0  0  0  0
   -2.5345  -43.7732    5.1584 H   0  0  0  0  0  0
   -3.2354  -45.0075    4.3241 H   0  0  0  0  0  0
   -4.1868  -43.1945    3.2140 H   0  0  0  0  0  0
   -4.2988  -42.2514    4.6617 H   0  0  0  0  0  0
   -6.0759  -44.6138    3.9210 H   0  0  0  0  0  0
   -6.5910  -42.9499    3.9395 H   0  0  0  0  0  0
   -7.2743  -44.4024    5.9208 H   0  0  0  0  0  0
   -6.5909  -42.8640    6.3357 H   0  0  0  0  0  0
    1.5033  -50.7915    6.7395 N   0  0  0  0  0  0
    2.2211  -51.4320    7.0638 H   0  0  0  0  0  0
  1  2  2  0  0  0
  2  3  1  0  0  0
  2  4  1  0  0  0
  4 11  2  0  0  0
  4 47  1  0  0  0
  5  6  1  0  0  0
  5 10  2  0  0  0
  5 47  1  0  0  0
  6  7  2  0  0  0
  6 20  1  0  0  0
  7  8  1  0  0  0
  7 21  1  0  0  0
  8  9  2  0  0  0
  8 22  1  0  0  0
  9 10  1  0  0  0
  9 23  1  0  0  0
 10 11  1  0  0  0
 11 12  1  0  0  0
 12 24  1  0  0  0
 12 25  1  0  0  0
 12 13  1  0  0  0
 13 14  1  0  0  0
 13 26  1  0  0  0
 13 27  1  0  0  0
 14 15  1  0  0  0
 14 28  1  0  0  0
 14 29  1  0  0  0
 15 16  1  0  0  0
 16 19  2  0  0  0
 16 32  1  0  0  0
 17 18  2  0  0  0
 17 31  1  0  0  0
 17 38  1  0  0  0
 18 19  1  0  0  0
 18 37  1  0  0  0
 19 30  1  0  0  0
 31 32  2  0  0  0
 31 36  1  0  0  0
 32 33  1  0  0  0
 33 34  1  0  0  0
 33 39  1  0  0  0
 33 40  1  0  0  0
 34 35  1  0  0  0
 34 41  1  0  0  0
 34 42  1  0  0  0
 35 36  1  0  0  0
 35 43  1  0  0  0
 35 44  1  0  0  0
 36 45  1  0  0  0
 36 46  1  0  0  0
 47 48  1  0  0  0
M  CHG  1   3  -1
M  END
> <s_m_entry_id>
245

> <s_m_entry_name>
MCL1_45.1

> <r_m_Molecular_weight>
348.42554

> <s_m_Source_Path>
C:\Users\yujiethinkpad\Desktop\05A\MCL1\original

> <s_m_Source_File>
MCL1_45.sdf

> <r_user_dG.exp>
-8.95356461676206

> <s_fepmapper_entryid>
39

> <i_fepmapper_bias>
0

> <i_fepmapper_affinity>
1

> <r_fepmapper_exp_dG>
-8.95356461676

> <i_fepmapper_unit>
1

> <i_m_Source_File_Index>
1

> <s_m_job_name>
align_ligands_2

> <s_i_glide_gridfile>
glide-grid_MCL1

> <i_i_glide_lignum>
29

> <i_i_glide_rotatable_bonds>
6

> <r_i_docking_score>
-8.88198360860248

> <r_i_glide_ligand_efficiency>
-0.341614754177019

> <r_i_glide_ligand_efficiency_sa>
-1.01203236506027

> <r_i_glide_ligand_efficiency_ln>
-2.08590470631497

> <r_i_glide_gscore>
-8.88198360860248

> <r_i_glide_lipo>
-5.47200480131084

> <r_i_glide_hbond>
-0.2

> <r_i_glide_metal>
0

> <r_i_glide_rewards>
-1.93353422727273

> <r_i_glide_evdw>
-29.6328983306885

> <r_i_glide_ecoul>
-2.73441767692566

> <r_i_glide_erotb>
0.627262239314276

> <r_i_glide_esite>
-0.0118992512599218

> <r_i_glide_emodel>
-44.4088864593391

> <r_i_glide_energy>
-32.3673160076141

> <r_i_glide_einternal>
3.75067377090454

> <i_i_glide_confnum>
57

> <i_i_glide_posenum>
311

> <r_i_glide_eff_state_penalty>
0

> <r_glide_shape_similarity>
0.902073800563812

> <i_phase_Input_Structure_Number>
10

> <i_phase_Structure_Number>
10

> <r_phase_Similarity_to_Reference>
0.852966625786314

> <i_phase_Reference_Structure>
1

> <s_phase_Alignment_Method>
snapped core

> <s_phase_Alignment_Reason>


> <s_phase_Core_SMARTS>
a1aaaaa1AAAAa(aa2)a(a23)aaaa3

> <s_f3d_frozen_atoms>
19 18 17 31 32 16 15 14 13 12 11 4 47 10 5 9 8 7 6 30 37 38 28 29 26 27 24 25 48 23 22 21 20

> <s_m_subgroup_title>
align_ligands_2

> <s_m_subgroupid>
align_ligands_2

> <b_m_subgroup_collapsed>
0

$$$$
