48
                    3D
 Schrodinger Suite 2021-2.
 42 45  0  0  1  0            999 V2000
    4.1784  -49.4639    6.2203 O   0  0  0  0  0  0
    3.2494  -48.6379    6.3898 C   0  0  0  0  0  0
    3.5057  -47.4203    6.5722 O   0  5  0  0  0  0
    1.8694  -49.1879    6.3561 C   0  0  0  0  0  0
   -0.1751  -50.7678    6.4871 C   0  0  0  0  0  0
   -1.1857  -51.7207    6.5942 C   0  0  0  0  0  0
   -2.5063  -51.3885    6.3255 C   0  0  0  0  0  0
   -2.8117  -50.0805    5.9266 C   0  0  0  0  0  0
   -1.8118  -49.1247    5.7993 C   0  0  0  0  0  0
   -0.4872  -49.4555    6.0836 C   0  0  0  0  0  0
    0.6424  -48.5710    6.0066 C   0  0  0  0  0  0
    0.5308  -47.1337    5.6114 C   0  0  0  0  0  0
    0.4854  -46.1552    6.7424 C   0  0  0  0  0  0
   -0.7882  -46.0224    7.5175 C   0  0  0  0  0  0
   -1.8227  -45.6254    6.6920 O   0  0  0  0  0  0
   -3.1083  -45.4602    7.1320 C   0  0  0  0  0  0
   -5.7337  -45.0786    7.9666 C   0  0  0  0  0  0
   -5.3052  -44.5292    6.7686 C   0  0  0  0  0  0
   -3.9866  -44.7164    6.3549 C   0  0  0  0  0  0
   -0.9467  -52.7286    6.9039 H   0  0  0  0  0  0
   -3.2824  -52.1365    6.3988 H   0  0  0  0  0  0
   -3.8324  -49.8289    5.6689 H   0  0  0  0  0  0
   -2.0971  -48.1338    5.4930 H   0  0  0  0  0  0
    1.3368  -46.8554    4.9339 H   0  0  0  0  0  0
   -0.3715  -46.9939    5.0161 H   0  0  0  0  0  0
    1.3509  -46.1473    7.4069 H   0  0  0  0  0  0
    0.5976  -45.3152    6.1225 H   0  0  0  0  0  0
   -1.0516  -46.9914    7.9422 H   0  0  0  0  0  0
   -0.5905  -45.3666    8.3573 H   0  0  0  0  0  0
   -3.6869  -44.3208    5.3981 H   0  0  0  0  0  0
   -5.9796  -43.9597    6.1458 H   0  0  0  0  0  0
   -6.7306  -44.8744    8.3333 H   0  0  0  0  0  0
    1.5033  -50.7915    6.7395 N   0  0  0  0  0  0
    2.2296  -51.4315    7.0532 H   0  0  0  0  0  0
   -3.7352  -46.8550   10.4376 C   0  0  0  0  0  0
   -4.9712  -46.3999    9.9891 N   0  0  0  0  0  0
   -4.8346  -45.8169    8.7381 C   0  0  0  0  0  0
   -3.5177  -46.0130    8.3257 C   0  0  0  0  0  0
   -2.8963  -46.7929    9.3884 C   0  0  0  0  0  0
   -5.8121  -46.4065   10.5565 H   0  0  0  0  0  0
   -1.8698  -47.1237    9.3530 H   0  0  0  0  0  0
   -3.6250  -47.2846   11.4229 H   0  0  0  0  0  0
  1  2  2  0  0  0
  2  3  1  0  0  0
  2  4  1  0  0  0
  4 11  2  0  0  0
  4 33  1  0  0  0
  5  6  1  0  0  0
  5 10  2  0  0  0
  5 33  1  0  0  0
  6  7  2  0  0  0
  6 20  1  0  0  0
  7  8  1  0  0  0
  7 21  1  0  0  0
  8  9  2  0  0  0
  8 22  1  0  0  0
  9 10  1  0  0  0
  9 23  1  0  0  0
 10 11  1  0  0  0
 11 12  1  0  0  0
 12 24  1  0  0  0
 12 25  1  0  0  0
 12 13  1  0  0  0
 13 14  1  0  0  0
 13 26  1  0  0  0
 13 27  1  0  0  0
 14 15  1  0  0  0
 14 28  1  0  0  0
 14 29  1  0  0  0
 15 16  1  0  0  0
 16 19  2  0  0  0
 16 38  1  0  0  0
 17 18  2  0  0  0
 17 32  1  0  0  0
 17 37  1  0  0  0
 18 19  1  0  0  0
 18 31  1  0  0  0
 19 30  1  0  0  0
 33 34  1  0  0  0
 35 36  1  0  0  0
 35 39  2  0  0  0
 35 42  1  0  0  0
 36 37  1  0  0  0
 36 40  1  0  0  0
 37 38  2  0  0  0
 38 39  1  0  0  0
 39 41  1  0  0  0
M  CHG  1   3  -1
M  END
> <s_m_entry_id>
268

> <s_m_entry_name>
MCL1_48.1

> <r_m_Molecular_weight>
333.37009

> <s_m_Source_Path>
C:\Users\yujiethinkpad\Desktop\05A\MCL1\original

> <s_m_Source_File>
MCL1_48.sdf

> <r_user_dG.exp>
-6.6626190630157

> <s_fepmapper_entryid>
3

> <i_fepmapper_bias>
0

> <i_fepmapper_affinity>
1

> <r_fepmapper_exp_dG>
-6.66261906302

> <i_fepmapper_unit>
1

> <i_m_Source_File_Index>
1

> <s_m_job_name>
align_ligands_2

> <s_i_glide_gridfile>
glide-grid_MCL1

> <i_i_glide_lignum>
32

> <i_i_glide_rotatable_bonds>
6

> <r_i_docking_score>
-7.7494996115928

> <r_i_glide_ligand_efficiency>
-0.309979984463712

> <r_i_glide_ligand_efficiency_sa>
-0.906386972090326

> <r_i_glide_ligand_efficiency_ln>
-1.83686364171074

> <r_i_glide_gscore>
-7.7494996115928

> <r_i_glide_lipo>
-4.73769544597166

> <r_i_glide_hbond>
-0.2

> <r_i_glide_metal>
0

> <r_i_glide_rewards>
-1.53617786363636

> <r_i_glide_evdw>
-31.4578647613525

> <r_i_glide_ecoul>
-2.46666932106018

> <r_i_glide_erotb>
0.678363432142764

> <r_i_glide_esite>
-0.0110960979008832

> <r_i_glide_emodel>
-43.3669994859804

> <r_i_glide_energy>
-33.9245340824127

> <r_i_glide_einternal>
4.57946586608887

> <i_i_glide_confnum>
36

> <i_i_glide_posenum>
119

> <r_i_glide_eff_state_penalty>
0

> <r_glide_shape_similarity>
0.881783962249756

> <i_phase_Input_Structure_Number>
33

> <i_phase_Structure_Number>
33

> <r_phase_Similarity_to_Reference>
0.886246355323921

> <i_phase_Reference_Structure>
1

> <s_phase_Alignment_Method>
snapped core

> <s_phase_Alignment_Reason>


> <s_phase_Core_SMARTS>
a1aaaaa1AAAAa(aa2)a(a23)aaaa3

> <s_f3d_frozen_atoms>
38 37 17 18 19 16 15 14 13 12 11 4 33 10 5 9 8 7 6 32 31 30 28 29 26 27 24 25 34 23 22 21 20

> <s_m_subgroup_title>
align_ligands_2

> <s_m_subgroupid>
align_ligands_2

> <b_m_subgroup_collapsed>
0

$$$$
