54
                    3D
 Schrodinger Suite 2021-2.
 44 47  0  0  1  0            999 V2000
    4.1784  -49.4639    6.2203 O   0  0  0  0  0  0
    3.2494  -48.6379    6.3898 C   0  0  0  0  0  0
    3.5057  -47.4203    6.5722 O   0  5  0  0  0  0
    1.8694  -49.1879    6.3561 C   0  0  0  0  0  0
   -0.1751  -50.7678    6.4871 C   0  0  0  0  0  0
   -1.1857  -51.7207    6.5942 C   0  0  0  0  0  0
   -2.5063  -51.3885    6.3255 C   0  0  0  0  0  0
   -2.8117  -50.0805    5.9266 C   0  0  0  0  0  0
   -1.8118  -49.1247    5.7993 C   0  0  0  0  0  0
   -0.4872  -49.4555    6.0836 C   0  0  0  0  0  0
    0.6424  -48.5710    6.0066 C   0  0  0  0  0  0
    0.5308  -47.1337    5.6114 C   0  0  0  0  0  0
    0.4854  -46.1552    6.7424 C   0  0  0  0  0  0
   -0.7882  -46.0224    7.5175 C   0  0  0  0  0  0
   -1.8227  -45.6254    6.6920 O   0  0  0  0  0  0
   -3.1083  -45.4602    7.1320 C   0  0  0  0  0  0
   -5.7337  -45.0786    7.9666 C   0  0  0  0  0  0
   -4.8346  -45.8169    8.7381 C   0  0  0  0  0  0
   -3.5177  -46.0130    8.3257 C   0  0  0  0  0  0
   -0.9526  -52.7083    6.9562 H   0  0  0  0  0  0
   -3.7023  -52.5958    6.6072 Cl  0  0  0  0  0  0
   -3.8409  -49.7923    5.7539 H   0  0  0  0  0  0
   -2.0747  -48.1110    5.5441 H   0  0  0  0  0  0
    1.3670  -46.8674    4.9648 H   0  0  0  0  0  0
   -0.3618  -46.9891    5.0043 H   0  0  0  0  0  0
    1.2352  -46.4498    7.4769 H   0  0  0  0  0  0
    0.7974  -45.1674    6.4036 H   0  0  0  0  0  0
   -1.0075  -47.0069    7.9164 H   0  0  0  0  0  0
   -0.6206  -45.3355    8.3472 H   0  0  0  0  0  0
   -2.8477  -46.5811    8.9493 H   0  0  0  0  0  0
   -5.3052  -44.5292    6.7686 C   0  0  0  0  0  0
   -3.9866  -44.7164    6.3549 C   0  0  0  0  0  0
   -3.5714  -44.1487    5.1072 C   0  0  0  0  0  0
   -4.5244  -43.5604    4.2416 C   0  0  0  0  0  0
   -5.8828  -43.4824    4.6373 C   0  0  0  0  0  0
   -6.2499  -43.8863    5.9319 C   0  0  0  0  0  0
   -2.5610  -44.3002    4.7700 H   0  0  0  0  0  0
   -4.2190  -43.1944    3.2726 H   0  0  0  0  0  0
   -6.6100  -43.0553    3.9648 H   0  0  0  0  0  0
   -7.2726  -43.7509    6.2554 H   0  0  0  0  0  0
   -5.1525  -46.2709    9.6640 H   0  0  0  0  0  0
   -6.7720  -45.0111    8.2621 H   0  0  0  0  0  0
    1.5033  -50.7915    6.7395 N   0  0  0  0  0  0
    2.2143  -51.4267    7.0916 H   0  0  0  0  0  0
  1  2  2  0  0  0
  2  3  1  0  0  0
  2  4  1  0  0  0
  4 11  2  0  0  0
  4 43  1  0  0  0
  5  6  1  0  0  0
  5 10  2  0  0  0
  5 43  1  0  0  0
  6  7  2  0  0  0
  6 20  1  0  0  0
  7  8  1  0  0  0
  7 21  1  0  0  0
  8  9  2  0  0  0
  8 22  1  0  0  0
  9 10  1  0  0  0
  9 23  1  0  0  0
 10 11  1  0  0  0
 11 12  1  0  0  0
 12 24  1  0  0  0
 12 25  1  0  0  0
 12 13  1  0  0  0
 13 14  1  0  0  0
 13 26  1  0  0  0
 13 27  1  0  0  0
 14 15  1  0  0  0
 14 28  1  0  0  0
 14 29  1  0  0  0
 15 16  1  0  0  0
 16 19  2  0  0  0
 16 32  1  0  0  0
 17 18  2  0  0  0
 17 31  1  0  0  0
 17 42  1  0  0  0
 18 19  1  0  0  0
 18 41  1  0  0  0
 19 30  1  0  0  0
 31 32  2  0  0  0
 31 36  1  0  0  0
 32 33  1  0  0  0
 33 34  2  0  0  0
 33 37  1  0  0  0
 34 35  1  0  0  0
 34 38  1  0  0  0
 35 36  2  0  0  0
 35 39  1  0  0  0
 36 40  1  0  0  0
 43 44  1  0  0  0
M  CHG  1   3  -1
M  END
> <s_m_entry_id>
244

> <s_m_entry_name>
MCL1_54.1

> <r_m_Molecular_weight>
378.83869

> <s_m_Source_Path>
C:\Users\yujiethinkpad\Desktop\05A\MCL1\original

> <s_m_Source_File>
MCL1_54.sdf

> <r_user_dG.exp>
-9.77997627425646

> <s_fepmapper_entryid>
19

> <i_fepmapper_bias>
0

> <i_fepmapper_affinity>
1

> <r_fepmapper_exp_dG>
-9.77997627426

> <i_fepmapper_unit>
1

> <i_m_Source_File_Index>
1

> <s_m_job_name>
align_ligands_2

> <s_i_glide_gridfile>
glide-grid_MCL1

> <i_i_glide_lignum>
38

> <i_i_glide_rotatable_bonds>
6

> <r_i_docking_score>
-8.8874638079673

> <r_i_glide_ligand_efficiency>
-0.329165326221011

> <r_i_glide_ligand_efficiency_sa>
-0.987495977578158

> <r_i_glide_ligand_efficiency_ln>
-2.06885505320265

> <r_i_glide_gscore>
-8.8874638079673

> <r_i_glide_lipo>
-5.47871079309101

> <r_i_glide_hbond>
-0.2

> <r_i_glide_metal>
0

> <r_i_glide_rewards>
-1.72617286363636

> <r_i_glide_evdw>
-31.9270362854004

> <r_i_glide_ecoul>
-2.68072104454041

> <r_i_glide_erotb>
0.540262106106263

> <r_i_glide_esite>
-0.0243822863951107

> <r_i_glide_emodel>
-41.3364221540452

> <r_i_glide_energy>
-34.6077573299408

> <r_i_glide_einternal>
5.42647171020508

> <i_i_glide_confnum>
70

> <i_i_glide_posenum>
327

> <r_i_glide_eff_state_penalty>
0

> <r_glide_shape_similarity>
0.866218090057373

> <i_phase_Input_Structure_Number>
9

> <i_phase_Structure_Number>
9

> <r_phase_Similarity_to_Reference>
0.839152289904542

> <i_phase_Reference_Structure>
1

> <s_phase_Alignment_Method>
snapped core

> <s_phase_Alignment_Reason>


> <s_phase_Core_SMARTS>
a1aaaaa1AAAAa(aa2)a(a23)aaaa3

> <s_f3d_frozen_atoms>
19 18 17 31 32 16 15 14 13 12 11 4 43 10 5 9 8 7 6 30 41 42 28 29 26 27 24 25 44 23 22 21 20

> <s_m_subgroup_title>
align_ligands_2

> <s_m_subgroupid>
align_ligands_2

> <b_m_subgroup_collapsed>
0

$$$$
