ejm_45
                    3D
 Schrodinger Suite 2021-2.
 39 41  0  0  1  0            999 V2000
   -7.3060   33.3847  -30.9710 C   0  0  0  0  0  0
   -6.3793   33.0144  -31.9477 C   0  0  0  0  0  0
   -5.8695   31.7158  -31.9704 C   0  0  0  0  0  0
   -6.2853   30.7865  -31.0173 C   0  0  0  0  0  0
   -7.2108   31.1545  -30.0411 C   0  0  0  0  0  0
   -7.7211   32.4529  -30.0176 C   0  0  0  0  0  0
   -7.7246   30.0040  -28.8623 Cl  0  0  0  0  0  0
   -5.7370   29.3905  -31.0422 C   0  0  0  0  0  0
   -4.7292   29.0143  -30.4510 O   0  0  0  0  0  0
   -6.4804   28.5791  -31.7951 N   0  0  0  0  0  0
   -6.2196   27.1613  -32.0262 C   0  0  0  0  0  0
   -6.8096   26.4965  -33.0995 C   0  0  0  0  0  0
   -6.5353   25.1374  -33.2838 C   0  0  0  0  0  0
   -5.7163   24.4336  -32.4595 N   0  0  0  0  0  0
   -5.1074   25.0644  -31.3289 C   0  0  0  0  0  0
   -5.4213   26.4520  -31.1744 C   0  0  0  0  0  0
   -4.2456   24.3033  -30.4290 N   0  0  0  0  0  0
   -4.2276   22.9751  -30.3133 C   0  0  0  0  0  0
   -4.9559   22.2386  -30.9719 O   0  0  0  0  0  0
   -3.2239   22.5173  -29.2970 C   0  0  0  0  0  0
   -4.7245   31.2594  -33.1779 Cl  0  0  0  0  0  0
   -2.7203   23.3836  -28.8679 H   0  0  0  0  0  0
   -7.7012   34.3909  -30.9531 H   0  0  0  0  0  0
   -6.0555   33.7327  -32.6875 H   0  0  0  0  0  0
   -8.4382   32.7356  -29.2599 H   0  0  0  0  0  0
   -7.3149   28.8461  -32.2975 H   0  0  0  0  0  0
   -7.4652   27.0314  -33.7709 H   0  0  0  0  0  0
   -6.9820   24.6033  -34.1095 H   0  0  0  0  0  0
   -4.9809   26.9385  -30.3166 H   0  0  0  0  0  0
   -3.6653   24.9453  -29.9083 H   0  0  0  0  0  0
   -3.7327   21.9648  -28.5071 H   0  0  0  0  0  0
   -1.6749   22.1384  -30.7596 H   0  0  0  0  0  0
   -2.2130   21.6279  -29.9580 C   0  0  0  0  0  0
   -1.4766   20.6092  -29.1178 C   0  0  0  0  0  0
   -2.5239   20.1560  -30.1096 C   0  0  0  0  0  0
   -0.4248   20.4092  -29.3332 H   0  0  0  0  0  0
   -1.6988   20.5463  -28.0504 H   0  0  0  0  0  0
   -2.2027   19.6399  -31.0168 H   0  0  0  0  0  0
   -3.4768   19.7769  -29.7340 H   0  0  0  0  0  0
  1  2  1  0  0  0
  1  6  2  0  0  0
  1 23  1  0  0  0
  2  3  2  0  0  0
  2 24  1  0  0  0
  3  4  1  0  0  0
  3 21  1  0  0  0
  4  5  2  0  0  0
  4  8  1  0  0  0
  5  6  1  0  0  0
  5  7  1  0  0  0
  6 25  1  0  0  0
  8  9  2  0  0  0
  8 10  1  0  0  0
 10 11  1  0  0  0
 10 26  1  0  0  0
 11 12  1  0  0  0
 11 16  2  0  0  0
 12 13  2  0  0  0
 12 27  1  0  0  0
 13 14  1  0  0  0
 13 28  1  0  0  0
 14 15  2  0  0  0
 15 16  1  0  0  0
 15 17  1  0  0  0
 16 29  1  0  0  0
 17 18  1  0  0  0
 17 30  1  0  0  0
 18 19  2  0  0  0
 18 20  1  0  0  0
 20 22  1  0  0  0
 20 31  1  0  0  0
 20 33  1  0  0  0
 32 33  1  0  0  0
 33 34  1  0  0  0
 33 35  1  0  0  0
 34 35  1  0  0  0
 34 36  1  0  0  0
 34 37  1  0  0  0
 35 38  1  0  0  0
 35 39  1  0  0  0
M  END
> <s_m_entry_id>
745

> <s_m_entry_name>
Tyk2_ejm_45.1

> <r_user_dG.exp>
-9.56

> <r_m_Molecular_weight>
364.234

> <s_m_Source_Path>
C:\Users\yujiethinkpad\Desktop\05A\Tyk2

> <s_m_Source_File>
Tyk2_ejm_45.sdf

> <i_m_Source_File_Index>
1

> <s_m_job_name>
align_ligands_0220

> <i_phase_Input_Structure_Number>
12

> <i_phase_Structure_Number>
12

> <r_phase_Similarity_to_Reference>
0.657638178267148

> <i_phase_Reference_Structure>
16

> <s_phase_Alignment_Method>
snapped core

> <s_phase_Alignment_Reason>


> <s_phase_Core_SMARTS>
a1aaaaa1

> <s_f3d_frozen_atoms>
15 14 13 12 11 16 28 27 29

> <s_fepmapper_entryid>
10

> <i_fepmapper_bias>
0

> <i_fepmapper_affinity>
1

> <r_fepmapper_exp_dG>
-9.56

> <i_fepmapper_unit>
1

> <s_m_subgroup_title>
align_ligands_0220

> <s_m_subgroupid>
align_ligands_0220

> <b_m_subgroup_collapsed>
0

$$$$
