ejm_45
                    3D
 Schrodinger Suite 2021-2.
 39 41  0  0  1  0            999 V2000
   -1.7434   20.9519  -27.9088 C   0  0  0  0  0  0
   -3.0781   21.1495  -27.5404 C   0  0  0  0  0  0
   -3.7921   22.2097  -28.1218 C   0  0  0  0  0  0
   -3.2114   23.0883  -29.0671 C   0  0  0  0  0  0
   -1.8531   22.9275  -29.3701 C   0  0  0  0  0  0
   -1.1503   21.8429  -28.8267 C   0  0  0  0  0  0
   -1.0066   24.0992  -30.3082 Cl  0  0  0  0  0  0
   -4.0034   24.2172  -29.6574 C   0  0  0  0  0  0
   -4.1348   25.3294  -29.1550 O   0  0  0  0  0  0
   -4.5650   23.8755  -30.8174 N   0  0  0  0  0  0
   -5.3976   24.7439  -31.6446 C   0  0  0  0  0  0
   -5.9350   24.2782  -32.8444 C   0  0  0  0  0  0
   -6.7270   25.1253  -33.6177 C   0  0  0  0  0  0
   -6.9988   26.4011  -33.2438 N   0  0  0  0  0  0
   -6.4692   26.8419  -32.0729 C   0  0  0  0  0  0
   -5.6689   26.0518  -31.2488 C   0  0  0  0  0  0
   -6.7752   28.2175  -31.6913 N   0  0  0  0  0  0
   -6.3494   28.8269  -30.5845 C   0  0  0  0  0  0
   -5.6364   28.2750  -29.7516 O   0  0  0  0  0  0
   -6.8470   30.2394  -30.4989 C   0  0  0  0  0  0
   -5.3330   22.5263  -27.5093 Cl  0  0  0  0  0  0
   -7.8102   30.3165  -31.0033 H   0  0  0  0  0  0
   -1.1841   20.1269  -27.4914 H   0  0  0  0  0  0
   -3.5422   20.4919  -26.8197 H   0  0  0  0  0  0
   -0.1237   21.7000  -29.1314 H   0  0  0  0  0  0
   -4.4832   22.9741  -31.2656 H   0  0  0  0  0  0
   -5.7393   23.2670  -33.1740 H   0  0  0  0  0  0
   -7.1527   24.7806  -34.5525 H   0  0  0  0  0  0
   -5.2689   26.4463  -30.3246 H   0  0  0  0  0  0
   -7.3615   28.6329  -32.4011 H   0  0  0  0  0  0
   -6.9614   30.5216  -29.4523 H   0  0  0  0  0  0
   -5.7127   30.9140  -32.2136 H   0  0  0  0  0  0
   -5.8618   31.1575  -31.1595 C   0  0  0  0  0  0
   -5.8134   32.6067  -30.7310 C   0  0  0  0  0  0
   -4.6881   31.6693  -30.3554 C   0  0  0  0  0  0
   -5.6306   33.3741  -31.4863 H   0  0  0  0  0  0
   -6.4970   32.9491  -29.9512 H   0  0  0  0  0  0
   -3.7203   31.7829  -30.8486 H   0  0  0  0  0  0
   -4.5867   31.3579  -29.3135 H   0  0  0  0  0  0
  1  2  1  0  0  0
  1  6  2  0  0  0
  1 23  1  0  0  0
  2  3  2  0  0  0
  2 24  1  0  0  0
  3  4  1  0  0  0
  3 21  1  0  0  0
  4  5  2  0  0  0
  4  8  1  0  0  0
  5  6  1  0  0  0
  5  7  1  0  0  0
  6 25  1  0  0  0
  8  9  2  0  0  0
  8 10  1  0  0  0
 10 11  1  0  0  0
 10 26  1  0  0  0
 11 12  1  0  0  0
 11 16  2  0  0  0
 12 13  2  0  0  0
 12 27  1  0  0  0
 13 14  1  0  0  0
 13 28  1  0  0  0
 14 15  2  0  0  0
 15 16  1  0  0  0
 15 17  1  0  0  0
 16 29  1  0  0  0
 17 18  1  0  0  0
 17 30  1  0  0  0
 18 19  2  0  0  0
 18 20  1  0  0  0
 20 22  1  0  0  0
 20 31  1  0  0  0
 20 33  1  0  0  0
 32 33  1  0  0  0
 33 34  1  0  0  0
 33 35  1  0  0  0
 34 35  1  0  0  0
 34 36  1  0  0  0
 34 37  1  0  0  0
 35 38  1  0  0  0
 35 39  1  0  0  0
M  END
> <s_m_entry_id>
777

> <s_m_entry_name>
Tyk2_ejm_45.1

> <r_user_dG.exp>
-9.56

> <r_m_Molecular_weight>
364.234

> <s_m_Source_Path>
C:\Users\yujiethinkpad\Desktop\05A\Tyk2

> <s_m_Source_File>
Tyk2_ejm_45.sdf

> <i_m_Source_File_Index>
1

> <s_m_job_name>
align_ligands_0662

> <i_phase_Input_Structure_Number>
12

> <i_phase_Structure_Number>
12

> <r_phase_Similarity_to_Reference>
0.865436142054412

> <i_phase_Reference_Structure>
16

> <s_phase_Alignment_Method>
snapped core

> <s_phase_Alignment_Reason>


> <s_phase_Core_SMARTS>
a1aaaaa1

> <s_f3d_frozen_atoms>
4 5 6 1 2 3 7 25 23 24 21

> <s_fepmapper_entryid>
10

> <i_fepmapper_bias>
0

> <i_fepmapper_affinity>
1

> <r_fepmapper_exp_dG>
-9.56

> <i_fepmapper_unit>
1

> <s_m_subgroup_title>
align_ligands_0662

> <s_m_subgroupid>
align_ligands_0662

> <b_m_subgroup_collapsed>
0

$$$$
