ejm_55
                    3D
 Schrodinger Suite 2021-2.
 33 34  0  0  1  0            999 V2000
   -2.5792   21.1460  -27.3853 C   0  0  0  0  0  0
   -3.8587   21.0479  -27.9350 C   0  0  0  0  0  0
   -4.2337   21.8129  -29.0521 C   0  0  0  0  0  0
   -3.3286   22.7477  -29.6434 C   0  0  0  0  0  0
   -2.0118   22.7843  -29.0876 C   0  0  0  0  0  0
   -1.6616   22.0147  -27.9704 C   0  0  0  0  0  0
   -0.7233   23.7378  -29.7035 Cl  0  0  0  0  0  0
   -3.7176   23.7602  -30.7203 C   0  0  0  0  0  0
   -2.9082   24.6039  -31.0991 O   0  0  0  0  0  0
   -4.9415   23.7840  -31.2820 N   0  0  0  0  0  0
   -5.5115   24.9936  -31.8073 C   0  0  0  0  0  0
   -6.3559   25.0487  -32.9345 C   0  0  0  0  0  0
   -6.8593   26.3176  -33.3151 C   0  0  0  0  0  0
   -6.5335   27.4925  -32.7094 N   0  0  0  0  0  0
   -5.7262   27.4252  -31.6299 C   0  0  0  0  0  0
   -5.2832   26.1979  -31.1284 C   0  0  0  0  0  0
   -5.4381   28.6765  -30.9350 N   0  0  0  0  0  0
   -6.0988   29.8185  -31.0958 C   0  0  0  0  0  0
   -7.0477   29.9765  -31.8560 O   0  0  0  0  0  0
   -5.8103   21.4626  -29.6375 Cl  0  0  0  0  0  0
   -2.3156   20.5538  -26.5208 H   0  0  0  0  0  0
   -4.5826   20.3739  -27.5006 H   0  0  0  0  0  0
   -0.6647   22.1015  -27.5630 H   0  0  0  0  0  0
   -5.4857   22.9352  -31.3426 H   0  0  0  0  0  0
   -6.5969   24.1437  -33.4728 H   0  0  0  0  0  0
   -7.5528   26.3987  -34.1392 H   0  0  0  0  0  0
   -4.7508   26.1952  -30.1888 H   0  0  0  0  0  0
   -4.6568   28.5345  -30.3133 H   0  0  0  0  0  0
   -6.1956   32.0168  -30.3939 C   0  0  0  0  0  0
   -5.7072   32.7222  -29.7217 H   0  0  0  0  0  0
   -6.1241   32.3822  -31.4184 H   0  0  0  0  0  0
   -5.5760   30.7873  -30.2998 O   0  0  0  0  0  0
   -7.2449   31.9171  -30.1161 H   0  0  0  0  0  0
  1  2  1  0  0  0
  1  6  2  0  0  0
  1 21  1  0  0  0
  2  3  2  0  0  0
  2 22  1  0  0  0
  3  4  1  0  0  0
  3 20  1  0  0  0
  4  5  2  0  0  0
  4  8  1  0  0  0
  5  6  1  0  0  0
  5  7  1  0  0  0
  6 23  1  0  0  0
  8  9  2  0  0  0
  8 10  1  0  0  0
 10 11  1  0  0  0
 10 24  1  0  0  0
 11 12  1  0  0  0
 11 16  2  0  0  0
 12 13  2  0  0  0
 12 25  1  0  0  0
 13 14  1  0  0  0
 13 26  1  0  0  0
 14 15  2  0  0  0
 15 16  1  0  0  0
 15 17  1  0  0  0
 16 27  1  0  0  0
 17 18  1  0  0  0
 17 28  1  0  0  0
 18 19  2  0  0  0
 18 32  1  0  0  0
 29 30  1  0  0  0
 29 31  1  0  0  0
 29 32  1  0  0  0
 29 33  1  0  0  0
M  END
> <s_m_entry_id>
801

> <s_m_entry_name>
Tyk2_ejm_55.1

> <r_user_dG.exp>
-9.21

> <r_m_Molecular_weight>
340.16807

> <s_m_Source_Path>
C:\Users\yujiethinkpad\Desktop\05A\Tyk2

> <s_m_Source_File>
Tyk2_ejm_55.sdf

> <i_m_Source_File_Index>
1

> <s_m_job_name>
align_ligands_0960

> <i_phase_Input_Structure_Number>
4

> <i_phase_Structure_Number>
4

> <r_phase_Similarity_to_Reference>
0.862161273374661

> <i_phase_Reference_Structure>
16

> <s_phase_Alignment_Method>
snapped core

> <s_phase_Alignment_Reason>


> <s_phase_Core_SMARTS>
a1aaaaa1A(=A)Aa2aaaaa2

> <s_f3d_frozen_atoms>
5 6 1 2 3 4 8 9 10 11 12 13 14 15 16 7 23 21 22 20 9 24 25 26 27

> <s_fepmapper_entryid>
6

> <i_fepmapper_bias>
0

> <i_fepmapper_affinity>
1

> <r_fepmapper_exp_dG>
-9.21

> <i_fepmapper_unit>
1

> <s_m_subgroup_title>
align_ligands_0960

> <s_m_subgroupid>
align_ligands_0960

> <b_m_subgroup_collapsed>
0

$$$$
