ejm_46
                    3D
 Schrodinger Suite 2021-2.
 36 38  0  0  1  0            999 V2000
   -3.3286   22.7477  -29.6434 C   0  0  0  0  0  0
   -2.0118   22.7843  -29.0876 C   0  0  0  0  0  0
   -1.6616   22.0147  -27.9704 C   0  0  0  0  0  0
   -5.5115   24.9936  -31.8073 C   0  0  0  0  0  0
   -3.7176   23.7602  -30.7203 C   0  0  0  0  0  0
   -6.3559   25.0487  -32.9345 C   0  0  0  0  0  0
   -6.8593   26.3176  -33.3151 C   0  0  0  0  0  0
   -4.2337   21.8129  -29.0521 C   0  0  0  0  0  0
   -2.5792   21.1460  -27.3853 C   0  0  0  0  0  0
   -3.8587   21.0479  -27.9350 C   0  0  0  0  0  0
   -0.7233   23.7378  -29.7035 Cl  0  0  0  0  0  0
   -2.9082   24.6039  -31.0991 O   0  0  0  0  0  0
   -4.9415   23.7840  -31.2820 N   0  0  0  0  0  0
   -6.5335   27.4925  -32.7094 N   0  0  0  0  0  0
   -5.7262   27.4252  -31.6299 C   0  0  0  0  0  0
   -5.2832   26.1979  -31.1284 C   0  0  0  0  0  0
   -4.9476   28.4303  -31.0173 N   0  0  0  0  0  0
   -4.9244   29.7516  -30.8582 C   0  0  0  0  0  0
   -3.8817   30.2181  -30.4045 O   0  0  0  0  0  0
   -6.0738   30.6457  -31.1048 C   0  0  0  0  0  0
   -6.1328   31.7639  -30.0649 C   0  0  0  0  0  0
   -5.7070   32.0767  -31.4499 C   0  0  0  0  0  0
   -5.8103   21.4626  -29.6375 Cl  0  0  0  0  0  0
   -0.6612   22.0794  -27.5664 H   0  0  0  0  0  0
   -6.6183   24.1586  -33.4875 H   0  0  0  0  0  0
   -7.5100   26.3895  -34.1720 H   0  0  0  0  0  0
   -2.2976   20.5430  -26.5345 H   0  0  0  0  0  0
   -4.5668   20.3517  -27.5090 H   0  0  0  0  0  0
   -5.5453   22.9824  -31.1774 H   0  0  0  0  0  0
   -4.6578   26.1957  -30.2453 H   0  0  0  0  0  0
   -4.1144   28.0447  -30.5972 H   0  0  0  0  0  0
   -7.0022   30.2314  -31.4939 H   0  0  0  0  0  0
   -5.3800   31.8360  -29.2810 H   0  0  0  0  0  0
   -7.1136   32.1198  -29.7676 H   0  0  0  0  0  0
   -6.4285   32.7345  -31.9079 H   0  0  0  0  0  0
   -4.6648   32.3461  -31.6066 H   0  0  0  0  0  0
  1  2  1  0  0  0
  1  5  1  0  0  0
  1  8  2  0  0  0
  2  3  2  0  0  0
  2 11  1  0  0  0
  3  9  1  0  0  0
  3 24  1  0  0  0
  4  6  2  0  0  0
  4 13  1  0  0  0
  4 16  1  0  0  0
  5 12  2  0  0  0
  5 13  1  0  0  0
  6  7  1  0  0  0
  6 25  1  0  0  0
  7 14  2  0  0  0
  7 26  1  0  0  0
  8 10  1  0  0  0
  8 23  1  0  0  0
  9 10  2  0  0  0
  9 27  1  0  0  0
 10 28  1  0  0  0
 13 29  1  0  0  0
 14 15  1  0  0  0
 15 16  2  0  0  0
 15 17  1  0  0  0
 16 30  1  0  0  0
 17 18  1  0  0  0
 17 31  1  0  0  0
 18 19  2  0  0  0
 18 20  1  0  0  0
 20 21  1  0  0  0
 20 22  1  0  0  0
 20 32  1  0  0  0
 21 22  1  0  0  0
 21 33  1  0  0  0
 21 34  1  0  0  0
 22 35  1  0  0  0
 22 36  1  0  0  0
M  END
> <i_m_stars>
0

> <s_m_entry_id>
813

> <s_m_entry_name>
Structure587

> <s_m_Source_Path>
C:\Users\yujiethinkpad\Desktop\05A\Tyk2

> <s_m_Source_File>
4gih.pdb

> <i_m_Source_File_Index>
1

> <s_pdb_PDB_TITLE>
TYK2 (JH1) IN COMPLEX WITH 2,6-DICHLORO-N-{2-[(CYCLOPROPYLCARBONYL) AMINO]PYRIDIN-4-YL}BENZAMIDE

> <s_pdb_PDB_ID>
4GIH

> <r_pdb_PDB_CRYST1_a>
36.165

> <r_pdb_PDB_CRYST1_b>
74.378

> <r_pdb_PDB_CRYST1_c>
105.855

> <r_pdb_PDB_CRYST1_alpha>
90

> <r_pdb_PDB_CRYST1_beta>
90

> <r_pdb_PDB_CRYST1_gamma>
90

> <s_pdb_PDB_CRYST1_Space_Group>
P 21 21 21

> <i_pdb_PDB_CRYST1_z>
4

> <s_pdb_PDB_CLASSIFICATION>
TRANSFERASE/TRANSFERASE INHIBITOR

> <s_pdb_PDB_DEPOSITION_DATE>
08-AUG-12

> <s_pdb_PDB_format_version>
3.30

> <r_pdb_PDB_R>
0.188

> <r_pdb_PDB_Rfree>
0.217

> <r_pdb_PDB_RESOLUTION>
2

> <s_pdb_PDB_EXPDTA>
X-RAY DIFFRACTION

> <r_pdb_PDB_EXPDTA_TEMPERATURE>
173

> <r_pdb_PDB_EXPDTA_PH>
6.5

> <s_pdb_PDB_REMARK_350_Biomolecule_1_Transform_1_Chains>
A

> <s_pdb_PDB_REMARK_350_Biomolecule_1_Transform_1_Matrix_1>
1.000000 0.000000 0.000000   0.000000;0.000000 1.000000 0.000000   0.000000;0.000000 0.000000 1.000000   0.000000

> <s_ppw_entry_id_backup>
569

> <b_ppw_prepared>
1

> <s_ppw_prepared_with_version>
2021-2

> <b_ppw_assigned_bond_orders>
1

> <b_ppw_added_hydrogens>
1

> <b_ppw_treated_metals>
1

> <b_ppw_created_disulfur>
1

> <s_ppw_het_states>
eJxdkrFuwzAMRH+F0JykIi06ibNl6lp0LDwYaaa6dgd3CIL8e0Ux7UX1dDhQeuKdr4FDR2/5k6ZpVxT7FZncQu4g938yRUiGFMgGMkEqJGgJtARaAk1BU9AUNAVNQVPQFDQFTQvN9H1935zv6xbDNq2NzBLE5AlVhq3GSM8TYGTomUll7P5N2J6MrD0kqQwcKdeV9BlFeIKCOjx+fjT04Y70OyHI36NntOAPk8oAVgvWymD04pVIZeAdJr2e2kAN2sLIzjpuMvYa7IH5142bJrbbWx4xO7wuw3Kmr/M0jMulK8ORPk7D+PQ5jwd6Xh/n6Z1O8/e0dCQHesk3hL6//QAzpqTk

> <s_m_source_file>
ligprep_co.maegz

> <i_m_source_file_index>
1

> <i_lp_mmshare_version>
54117

> <s_epik_input>
Q2xjMVtjSF1bY0hdW2NIXWMoQ2wpYzFDKD1PKVtOSF1jMltjSF1bY0hdbmMoW2NIXTIpW05IXUMoPU8pW0NIXTNbQ0gyXVtDSDJdMw==

> <s_epik_cmdline>
J2VwaWtfcHl0aG9uJywgJy1waCcsICc3LjAnLCAnLXRuJywgJzgnLCAnLW1hJywgJzUwMCcsICctaW1hZScsICc8aW5maWxlLm1hZT4nLCAnLW9tYWUnLCAnPG91dGZpbGUubWFlPic=

> <r_epik_Ionization_Penalty>
  0.0020

> <r_epik_Ionization_Penalty_Charging>
  0.0000

> <r_epik_Ionization_Penalty_Neutral>
  0.0020

> <r_epik_State_Penalty>
  0.0092

> <r_epik_Charging_Adjusted_Penalty>
0.00920207089186949

> <i_epik_Tot_Q>
0

> <i_epik_Tot_abs_Q>
0

> <i_f3d_flags>
0

> <s_lp_Force_Field>
S-OPLS

> <r_lp_Energy>
49.520606

> <b_lp_Chiralities_Consistent>
1

> <s_lp_Variant>
0000-1

> <s_m_job_name>
align_ligands_0960

> <s_i_glide_gridfile>
glide-grid_Tky

> <i_i_glide_lignum>
1

> <i_i_glide_rotatable_bonds>
6

> <r_i_docking_score>
-3.65080182269094

> <r_i_glide_ligand_efficiency>
-0.158730514030041

> <r_i_glide_ligand_efficiency_sa>
-0.451408467073102

> <r_i_glide_ligand_efficiency_ln>
-0.882796984367366

> <r_i_glide_gscore>
-3.66000182269094

> <r_i_glide_lipo>
-3.19452681042585

> <r_i_glide_hbond>
0

> <r_i_glide_metal>
0

> <r_i_glide_rewards>
0.266879397845005

> <r_i_glide_evdw>
-36.5026435852051

> <r_i_glide_ecoul>
1.06923866271973

> <r_i_glide_erotb>
0.932391969742199

> <r_i_glide_esite>
0

> <r_i_glide_emodel>
-25.5835949617817

> <r_i_glide_energy>
-35.4334049224854

> <r_i_glide_einternal>
5.96080684661865

> <i_i_glide_confnum>
11

> <i_i_glide_posenum>
149

> <r_i_glide_eff_state_penalty>
0.0092

> <r_glide_shape_similarity>
0.876017868518829

> <i_phase_Input_Structure_Number>
16

> <i_phase_Structure_Number>
16

> <r_phase_Similarity_to_Reference>
1

> <i_phase_Reference_Structure>
16

> <s_phase_Alignment_Method>


> <s_phase_Alignment_Reason>


> <s_phase_Core_SMARTS>


> <r_m_RMSD_582>
0.146307743411202

> <r_m_RMSD_587>
0

> <r_m_RMS_In_Place_582>
0.959632768034415

> <s_m_subgroup_title>
align_ligands_0960

> <s_m_subgroupid>
align_ligands_0960

> <b_m_subgroup_collapsed>
0

$$$$
