ejm_43
                    3D
 Schrodinger Suite 2021-2.
 38 39  0  0  1  0            999 V2000
   -2.5792   21.1460  -27.3853 C   0  0  0  0  0  0
   -3.8587   21.0479  -27.9350 C   0  0  0  0  0  0
   -4.2337   21.8129  -29.0521 C   0  0  0  0  0  0
   -3.3286   22.7477  -29.6434 C   0  0  0  0  0  0
   -2.0118   22.7843  -29.0876 C   0  0  0  0  0  0
   -1.6616   22.0147  -27.9704 C   0  0  0  0  0  0
   -0.7233   23.7378  -29.7035 Cl  0  0  0  0  0  0
   -3.7176   23.7602  -30.7203 C   0  0  0  0  0  0
   -2.9082   24.6039  -31.0991 O   0  0  0  0  0  0
   -4.9415   23.7840  -31.2820 N   0  0  0  0  0  0
   -5.5115   24.9936  -31.8073 C   0  0  0  0  0  0
   -6.3559   25.0487  -32.9345 C   0  0  0  0  0  0
   -6.8593   26.3176  -33.3151 C   0  0  0  0  0  0
   -6.5335   27.4925  -32.7094 N   0  0  0  0  0  0
   -5.7262   27.4252  -31.6299 C   0  0  0  0  0  0
   -5.2832   26.1979  -31.1284 C   0  0  0  0  0  0
   -5.4381   28.6765  -30.9350 N   0  0  0  0  0  0
   -6.1009   29.8221  -31.0963 C   0  0  0  0  0  0
   -7.0477   29.9416  -31.8684 O   0  0  0  0  0  0
   -5.5469   30.9139  -30.2296 C   0  0  0  0  0  0
   -5.8103   21.4626  -29.6375 Cl  0  0  0  0  0  0
   -6.6446   31.8695  -29.8664 C   0  0  0  0  0  0
   -2.3156   20.5538  -26.5208 H   0  0  0  0  0  0
   -4.5826   20.3739  -27.5006 H   0  0  0  0  0  0
   -0.6647   22.1015  -27.5630 H   0  0  0  0  0  0
   -5.4857   22.9352  -31.3426 H   0  0  0  0  0  0
   -6.5969   24.1437  -33.4728 H   0  0  0  0  0  0
   -7.5528   26.3987  -34.1392 H   0  0  0  0  0  0
   -4.7508   26.1952  -30.1888 H   0  0  0  0  0  0
   -4.6556   28.5343  -30.3124 H   0  0  0  0  0  0
   -4.4718   31.6473  -30.9753 C   0  0  0  0  0  0
   -5.1280   30.4798  -29.3217 H   0  0  0  0  0  0
   -3.6742   30.9529  -31.2392 H   0  0  0  0  0  0
   -4.8907   32.0814  -31.8832 H   0  0  0  0  0  0
   -4.0693   32.4407  -30.3455 H   0  0  0  0  0  0
   -7.4259   31.3366  -29.3245 H   0  0  0  0  0  0
   -6.2420   32.6629  -29.2366 H   0  0  0  0  0  0
   -7.0635   32.3036  -30.7743 H   0  0  0  0  0  0
  1  2  1  0  0  0
  1  6  2  0  0  0
  1 23  1  0  0  0
  2  3  2  0  0  0
  2 24  1  0  0  0
  3  4  1  0  0  0
  3 21  1  0  0  0
  4  5  2  0  0  0
  4  8  1  0  0  0
  5  6  1  0  0  0
  5  7  1  0  0  0
  6 25  1  0  0  0
  8  9  2  0  0  0
  8 10  1  0  0  0
 10 11  1  0  0  0
 10 26  1  0  0  0
 11 12  1  0  0  0
 11 16  2  0  0  0
 12 13  2  0  0  0
 12 27  1  0  0  0
 13 14  1  0  0  0
 13 28  1  0  0  0
 14 15  2  0  0  0
 15 16  1  0  0  0
 15 17  1  0  0  0
 16 29  1  0  0  0
 17 18  1  0  0  0
 17 30  1  0  0  0
 18 19  2  0  0  0
 18 20  1  0  0  0
 20 22  1  0  0  0
 20 31  1  0  0  0
 20 32  1  0  0  0
 22 36  1  0  0  0
 22 37  1  0  0  0
 22 38  1  0  0  0
 31 33  1  0  0  0
 31 34  1  0  0  0
 31 35  1  0  0  0
M  END
> <s_m_entry_id>
807

> <s_m_entry_name>
Tyk2_ejm_43.1

> <r_user_dG.exp>
-8.26

> <r_m_Molecular_weight>
352.22285

> <s_m_Source_Path>
C:\Users\yujiethinkpad\Desktop\05A\Tyk2

> <s_m_Source_File>
Tyk2_ejm_43.sdf

> <i_m_Source_File_Index>
1

> <s_m_job_name>
align_ligands_0960

> <i_phase_Input_Structure_Number>
10

> <i_phase_Structure_Number>
10

> <r_phase_Similarity_to_Reference>
0.909414990750661

> <i_phase_Reference_Structure>
16

> <s_phase_Alignment_Method>
snapped core

> <s_phase_Alignment_Reason>


> <s_phase_Core_SMARTS>
a1aaaaa1A(=A)Aa2aaaaa2

> <s_f3d_frozen_atoms>
5 6 1 2 3 4 8 9 10 11 12 13 14 15 16 7 25 23 24 21 9 26 27 28 29

> <s_fepmapper_entryid>
7

> <i_fepmapper_bias>
0

> <i_fepmapper_affinity>
1

> <r_fepmapper_exp_dG>
-8.26

> <i_fepmapper_unit>
1

> <s_m_subgroup_title>
align_ligands_0960

> <s_m_subgroupid>
align_ligands_0960

> <b_m_subgroup_collapsed>
0

$$$$
