CAT-4i
                    3D
 Schrodinger Suite 2021-2.
 44 47  0  0  1  0            999 V2000
   11.6585   -2.1443    1.1253 C   0  0  0  0  0  0
   12.8848   -2.5351    0.4519 N   0  0  0  0  0  0
   14.1024   -2.6249    1.0365 C   0  0  0  0  0  0
   14.1851   -2.5023    2.3636 N   0  0  0  0  0  0
   15.0807   -2.8195    0.2534 N   0  0  0  0  0  0
   14.5796   -2.9847   -1.0723 C   0  0  1  0  0  0
   15.1574   -1.9081   -1.9752 C   0  0  0  0  0  0
   15.1641   -0.5579   -1.5603 C   0  0  0  0  0  0
   15.5767    0.4565   -2.4325 C   0  0  0  0  0  0
   16.0314    0.1209   -3.7127 C   0  0  0  0  0  0
   16.0687   -1.2185   -4.1189 C   0  0  0  0  0  0
   15.6239   -2.2277   -3.2600 C   0  0  0  0  0  0
   14.8932   -4.4376   -1.4263 C   0  0  0  0  0  0
   16.2380   -4.8321   -1.4976 C   0  0  0  0  0  0
   16.5775   -6.1699   -1.7044 C   0  0  0  0  0  0
   15.5763   -7.1399   -1.7675 C   0  0  0  0  0  0
   14.2265   -6.7918   -1.5992 C   0  0  0  0  0  0
   13.2056   -7.8273   -1.3285 C   0  0  0  0  0  0
   13.5477   -9.1571   -0.9870 C   0  0  0  0  0  0
   12.5336  -10.0548   -0.6126 C   0  0  0  0  0  0
   11.1987   -9.6200   -0.6156 C   0  0  0  0  0  0
   10.9434   -8.2860   -0.9736 C   0  0  0  0  0  0
   11.9153   -7.4142   -1.3050 N   0  0  0  0  0  0
   13.8982   -5.4259   -1.5243 C   0  0  0  0  0  0
   13.0907   -2.6948   -0.8361 C   0  0  0  0  0  0
   12.2418   -2.6167   -1.7194 O   0  0  0  0  0  0
   11.5819   -2.5455    2.1361 H   0  0  0  0  0  0
   11.6065   -1.0588    1.1631 H   0  0  0  0  0  0
   10.7862   -2.4966    0.5732 H   0  0  0  0  0  0
   15.1162   -2.5684    2.7790 H   0  0  0  0  0  0
   14.8091   -0.2799   -0.5790 H   0  0  0  0  0  0
   15.5519    1.4885   -2.1147 H   0  0  0  0  0  0
   16.3619    0.8960   -4.3892 H   0  0  0  0  0  0
   16.4217   -1.4695   -5.1090 H   0  0  0  0  0  0
   15.6213   -3.2445   -3.6226 H   0  0  0  0  0  0
   17.0216   -4.0971   -1.3793 H   0  0  0  0  0  0
   17.6173   -6.4546   -1.7605 H   0  0  0  0  0  0
   15.8827   -8.1682   -1.8617 H   0  0  0  0  0  0
   14.5694   -9.4981   -0.9540 H   0  0  0  0  0  0
   12.7813  -11.0642   -0.3207 H   0  0  0  0  0  0
   10.3912  -10.2827   -0.3406 H   0  0  0  0  0  0
    9.9327   -7.9053   -0.9842 H   0  0  0  0  0  0
   12.8606   -5.1603   -1.4029 H   0  0  0  0  0  0
   13.4269   -2.2864    2.9973 H   0  0  0  0  0  0
  1 27  1  0  0  0
  1 28  1  0  0  0
  1 29  1  0  0  0
  1  2  1  0  0  0
  2 25  1  0  0  0
  2  3  1  0  0  0
  3  4  1  0  0  0
  3  5  2  0  0  0
  4 30  1  0  0  0
  4 44  1  0  0  0
  5  6  1  0  0  0
  6 25  1  0  0  0
  6  7  1  0  0  0
  6 13  1  0  0  0
  7  8  2  0  0  0
  7 12  1  0  0  0
  8  9  1  0  0  0
  8 31  1  0  0  0
  9 10  2  0  0  0
  9 32  1  0  0  0
 10 11  1  0  0  0
 10 33  1  0  0  0
 11 12  2  0  0  0
 11 34  1  0  0  0
 12 35  1  0  0  0
 13 14  2  0  0  0
 13 24  1  0  0  0
 14 15  1  0  0  0
 14 36  1  0  0  0
 15 16  2  0  0  0
 15 37  1  0  0  0
 16 17  1  0  0  0
 16 38  1  0  0  0
 17 18  1  0  0  0
 17 24  2  0  0  0
 18 19  2  0  0  0
 18 23  1  0  0  0
 19 20  1  0  0  0
 19 39  1  0  0  0
 20 21  2  0  0  0
 20 40  1  0  0  0
 21 22  1  0  0  0
 21 41  1  0  0  0
 22 23  2  0  0  0
 22 42  1  0  0  0
 24 43  1  0  0  0
 25 26  2  0  0  0
M  END
> <s_m_entry_id>
1238

> <s_m_entry_name>
Bace_CAT-4i.1

> <s_m_Source_Path>
C:\Users\yujiethinkpad\Desktop\05A\BACE

> <s_m_Source_File>
Bace_CAT-4i.sdf

> <i_m_Source_File_Index>
1

> <s_i_glide_gridfile>
glide-grid_Bace

> <s_lp_Force_Field>
S-OPLS

> <s_lp_Variant>
CAT-4i-2

> <r_i_docking_score>
-4.83593381097942

> <r_i_glide_ecoul>
-2.46333408355713

> <r_i_glide_einternal>
1.18815755844116

> <r_i_glide_emodel>
-17.6633698314643

> <r_i_glide_energy>
-31.9360857009888

> <r_i_glide_erotb>
0.485235280767516

> <r_i_glide_esite>
-0.0270942458373745

> <r_i_glide_evdw>
-29.4727516174316

> <r_i_glide_gscore>
-4.83593381097942

> <r_i_glide_hbond>
-0.456

> <r_i_glide_ligand_efficiency>
-0.185997454268439

> <r_i_glide_ligand_efficiency_ln>
-1.13570318751543

> <r_i_glide_ligand_efficiency_sa>
-0.551016726405609

> <r_i_glide_lipo>
-1.62198041215153

> <r_i_glide_metal>
0

> <r_i_glide_rewards>
-1.37295674035288

> <r_lp_Energy>
50.840447

> <i_i_glide_confnum>
19

> <i_i_glide_lignum>
2

> <i_i_glide_posenum>
216

> <i_i_glide_rotatable_bonds>
3

> <i_lp_mmshare_version>
54117

> <b_lp_Chiralities_Consistent>
1

> <r_lp_tautomer_probability>
1

> <r_i_glide_eff_state_penalty>
0

> <s_epik_input>
W2NIXTFbY0hdW2NIXVtjSF1bY0hdYzFbQ0BAXTIoTj1DKFtOSDJdKU4oW0NIM10pQzI9TyljM1tjSF1bY0hdW2NIXWMoW2NIXTMpLWM0W2NIXVtjSF1bY0hdW2NIXW40

> <s_epik_cmdline>
J2VwaWtfcHl0aG9uJywgJy1waCcsICc3LjAnLCAnLXRuJywgJzgnLCAnLW1hJywgJzUwMCcsICctaW1hZScsICc8aW5maWxlLm1hZT4nLCAnLW9tYWUnLCAnPG91dGZpbGUubWFlPic=

> <r_epik_Ionization_Penalty>
  0.8782

> <r_epik_Ionization_Penalty_Charging>
  0.0000

> <r_epik_Ionization_Penalty_Neutral>
  0.8782

> <r_epik_State_Penalty>
  0.0000

> <r_epik_Charging_Adjusted_Penalty>
0

> <i_epik_Tot_Q>
0

> <i_epik_Tot_abs_Q>
0

> <s_m_source_file>
ligprep_Bace4i.maegz

> <i_m_source_file_index>
1

> <i_f3d_flags>
0

> <s_m_job_name>
align_ligands_7

> <r_user_dG.exp>
-8.263

> <r_m_Molecular_weight>
343.41178

> <r_m_RMSD_695>
0

> <s_epik_Chemistry_Notes>
This compound has an imine and may undergo hydrolysis.

> <r_m_RMS_In_Place_720>
0.269593064964774

> <r_glide_shape_similarity>
0.754652202129364

> <i_phase_Input_Structure_Number>
36

> <i_phase_Structure_Number>
36

> <i_phase_Reference_Structure>
36

> <s_phase_Core_SMARTS>


> <r_phase_Similarity_to_Reference>
1

> <s_phase_Alignment_Method>


> <s_phase_Alignment_Reason>


> <s_m_subgroup_title>
align_ligands_7

> <s_m_subgroupid>
align_ligands_7

> <b_m_subgroup_collapsed>
0

$$$$
