/home/yujie/leadopt/data/result/selection/sEH/lig_7b.sdf:1
                    3D
 Schrodinger Suite 2021-2.
 53 56  0  0  1  0            999 V2000
   -1.5936  -15.3933   25.6499 O   0  0  0  0  0  0
   -1.1752  -14.9976   26.7291 C   0  0  0  0  0  0
   -0.0744  -14.0014   26.7445 C   0  0  0  0  0  0
    0.7290  -13.8323   25.5863 C   0  0  0  0  0  0
    1.6939  -12.8144   25.5012 C   0  0  0  0  0  0
    1.8236  -11.9949   26.6173 C   0  0  0  0  0  0
    2.6506  -10.9142   26.8606 N   0  0  0  0  0  0
    3.6311  -10.3389   25.9457 C   0  0  0  0  0  0
    5.0661  -10.7839   26.1683 C   0  0  0  0  0  0
    5.4123  -11.7393   27.1435 C   0  0  0  0  0  0
    6.7366  -12.1613   27.2886 C   0  0  0  0  0  0
    7.0570  -13.0338   28.2711 F   0  0  0  0  0  0
    7.7289  -11.6616   26.4379 C   0  0  0  0  0  0
    7.4025  -10.6906   25.4807 C   0  0  0  0  0  0
    6.0774  -10.2491   25.3528 C   0  0  0  0  0  0
    2.4461  -10.5367   28.1212 C   0  0  0  0  0  0
    1.4617  -11.2460   28.6648 N   0  0  0  0  0  0
    3.1078   -9.7323   28.7006 O   0  0  0  0  0  0
    1.0694  -12.1825   27.7488 C   0  0  0  0  0  0
    0.0963  -13.1608   27.8570 C   0  0  0  0  0  0
   -1.7122  -15.3698   27.8954 N   0  0  0  0  0  0
   -2.9422  -16.1421   27.9779 C   0  0  0  0  0  0
   -2.7815  -17.6604   27.8855 C   0  0  0  0  0  0
   -3.8407  -18.4868   27.4382 C   0  0  0  0  0  0
   -5.1023  -17.9118   26.8116 C   0  0  0  0  0  0
   -5.7333  -17.1609   27.7004 F   0  0  0  0  0  0
   -4.8087  -17.1741   25.7446 F   0  0  0  0  0  0
   -5.9342  -18.8632   26.4098 F   0  0  0  0  0  0
   -3.7359  -19.8819   27.5981 C   0  0  0  0  0  0
   -2.5846  -20.4863   28.1191 C   0  0  0  0  0  0
   -2.6013  -21.8618   28.2168 O   0  0  0  0  0  0
   -1.3834  -22.5525   28.4486 C   0  0  0  0  0  0
   -1.4988  -19.6613   28.4747 C   0  0  0  0  0  0
   -1.6012  -18.2634   28.3547 C   0  0  0  0  0  0
    0.5930  -14.4737   24.7267 H   0  0  0  0  0  0
    2.2912  -12.6720   24.6128 H   0  0  0  0  0  0
    3.3477  -10.5678   24.9171 H   0  0  0  0  0  0
    3.5821   -9.2526   26.0286 H   0  0  0  0  0  0
    4.6772  -12.1698   27.8020 H   0  0  0  0  0  0
    8.7459  -12.0018   26.5478 H   0  0  0  0  0  0
    8.1725  -10.2846   24.8405 H   0  0  0  0  0  0
    5.8323   -9.5105   24.6044 H   0  0  0  0  0  0
    1.1195  -11.1941   29.6097 H   0  0  0  0  0  0
   -0.5136  -13.2368   28.7440 H   0  0  0  0  0  0
   -1.3474  -14.9889   28.7709 H   0  0  0  0  0  0
   -3.6528  -15.7553   27.2488 H   0  0  0  0  0  0
   -3.3836  -15.9256   28.9509 H   0  0  0  0  0  0
   -4.5495  -20.5215   27.2965 H   0  0  0  0  0  0
   -1.5108  -23.6012   28.1722 H   0  0  0  0  0  0
   -1.1112  -22.5316   29.5000 H   0  0  0  0  0  0
   -0.5506  -22.1567   27.8648 H   0  0  0  0  0  0
   -0.5832  -20.0757   28.8768 H   0  0  0  0  0  0
   -0.7732  -17.6561   28.6924 H   0  0  0  0  0  0
  1  2  2  0  0  0
  2  3  1  0  0  0
  2 21  1  0  0  0
  3 20  1  0  0  0
  3  4  2  0  0  0
  4  5  1  0  0  0
  4 35  1  0  0  0
  5  6  2  0  0  0
  5 36  1  0  0  0
  6  7  1  0  0  0
  6 19  1  0  0  0
  7  8  1  0  0  0
  7 16  1  0  0  0
  8  9  1  0  0  0
  8 37  1  0  0  0
  8 38  1  0  0  0
  9 15  1  0  0  0
  9 10  2  0  0  0
 10 11  1  0  0  0
 10 39  1  0  0  0
 11 12  1  0  0  0
 11 13  2  0  0  0
 13 14  1  0  0  0
 13 40  1  0  0  0
 14 15  2  0  0  0
 14 41  1  0  0  0
 15 42  1  0  0  0
 16 17  1  0  0  0
 16 18  2  0  0  0
 17 19  1  0  0  0
 17 43  1  0  0  0
 19 20  2  0  0  0
 20 44  1  0  0  0
 21 22  1  0  0  0
 21 45  1  0  0  0
 22 23  1  0  0  0
 22 46  1  0  0  0
 22 47  1  0  0  0
 23 34  1  0  0  0
 23 24  2  0  0  0
 24 25  1  0  0  0
 24 29  1  0  0  0
 25 26  1  0  0  0
 25 27  1  0  0  0
 25 28  1  0  0  0
 29 30  2  0  0  0
 29 48  1  0  0  0
 30 31  1  0  0  0
 30 33  1  0  0  0
 31 32  1  0  0  0
 32 49  1  0  0  0
 32 50  1  0  0  0
 32 51  1  0  0  0
 33 34  2  0  0  0
 33 52  1  0  0  0
 34 53  1  0  0  0
M  END
> <s_m_entry_id>
79

> <s_m_entry_name>
sEH_lig_7b.1

> <s_m_Source_Path>
C:\Users\yujiethinkpad\Desktop\selection\selection\sEH_pose

> <s_m_Source_File>
sEH_lig_7b.sdf

> <i_m_Source_File_Index>
1

> <i_lp_mmshare_version>
51139

> <i_f3d_flags>
0

> <s_epik_input>
W0NIM11PYyhbY0hdW2NIXTEpW2NIXWMoQyhGKShGKUYpYzFbQ0gyXVtOSF1DKD1PKWMoW2NIXVtjSF0yKVtjSF1jKGMyMylbbkhdYyg9TyluM1tDSDJdYzRbY0hdYyhGKVtjSF1bY0hdW2NIXTQ=

> <s_epik_cmdline>
J2VwaWtfcHl0aG9uJywgJy1waHQnLCAnMi4wJywgJy1waCcsICc3LjAnLCAnLXRuJywgJzgnLCAnLW1hJywgJzIwMCcsICctaW1hZScsICc8aW5maWxlLm1hZT4nLCAnLW9tYWUnLCAnPG91dGZpbGUubWFlPic=

> <r_epik_Ionization_Penalty>
  0.0000

> <r_epik_Ionization_Penalty_Charging>
  0.0000

> <r_epik_Ionization_Penalty_Neutral>
  0.0000

> <r_epik_State_Penalty>
  0.0000

> <r_epik_Charging_Adjusted_Penalty>
2.2531e-05

> <i_epik_Tot_Q>
0

> <i_epik_Tot_abs_Q>
0

> <s_lp_Force_Field>
OPLS3e

> <r_lp_Energy>
37.0128

> <b_lp_Chiralities_Consistent>
1

> <s_lp_Variant>
/home/yujie/leadopt/data/result/selection/sEH/lig_7b.sdf:1-1

> <s_i_glide_gridfile>
glide-grid_sEH

> <i_i_glide_lignum>
19

> <i_i_glide_rotatable_bonds>
8

> <r_i_docking_score>
-11.593693183727

> <r_i_glide_ligand_efficiency>
-0.340990975991972

> <r_i_glide_ligand_efficiency_sa>
-1.10467838865422

> <r_i_glide_ligand_efficiency_ln>
-2.56137201636412

> <r_i_glide_gscore>
-11.593693183727

> <r_i_glide_lipo>
-4.24456505974545

> <r_i_glide_hbond>
-0.72

> <r_i_glide_metal>
0

> <r_i_glide_rewards>
-2.87360148990752

> <r_i_glide_evdw>
-48.1852264404297

> <r_i_glide_ecoul>
-11.2517700195313

> <r_i_glide_erotb>
0.541500190877096

> <r_i_glide_esite>
-0.2

> <r_i_glide_emodel>
-91.1026082162205

> <r_i_glide_energy>
-59.4369964599609

> <r_i_glide_einternal>
2.9478919506073

> <i_i_glide_confnum>
48

> <i_i_glide_posenum>
112

> <r_i_glide_eff_state_penalty>
0

> <r_lp_tautomer_probability>
1

> <s_m_job_name>
glide-dock_SP_all

> <r_glide_shape_similarity>
0.887526035308838

> <s_m_subgroup_title>
glide-dock_SP_all_pv1

> <s_m_subgroupid>
glide-dock_SP_all_pv1

> <b_m_subgroup_collapsed>
0

$$$$
