/home/yujie/leadopt/data/result/selection/sEH/lig_6g.sdf:1
                    3D
 Schrodinger Suite 2021-2.
 49 52  0  0  1  0            999 V2000
   -1.4985  -15.4267   25.6430 O   0  0  0  0  0  0
   -1.1333  -14.9815   26.7247 C   0  0  0  0  0  0
   -0.0558  -13.9445   26.7576 C   0  0  0  0  0  0
    0.7664  -13.7376   25.6172 C   0  0  0  0  0  0
    1.7315  -12.7104   25.5728 C   0  0  0  0  0  0
    1.8421  -11.9059   26.7084 C   0  0  0  0  0  0
    2.6867  -10.8422   27.0142 N   0  0  0  0  0  0
    3.6519  -10.2564   26.0857 C   0  0  0  0  0  0
    5.0739  -10.7728   26.2046 C   0  0  0  0  0  0
    6.0715  -10.2477   25.3678 C   0  0  0  0  0  0
    7.3955  -10.6969   25.4815 C   0  0  0  0  0  0
    8.3544  -10.1838   24.6814 F   0  0  0  0  0  0
    7.7309  -11.6653   26.4359 C   0  0  0  0  0  0
    6.7450  -12.1742   27.2892 C   0  0  0  0  0  0
    7.0663  -13.0434   28.2710 F   0  0  0  0  0  0
    5.4228  -11.7520   27.1538 C   0  0  0  0  0  0
    2.5720  -10.6173   28.3406 C   0  0  0  0  0  0
    1.4864  -11.2465   28.7889 N   0  0  0  0  0  0
    3.4193  -10.1325   29.0712 O   0  0  0  0  0  0
    1.0713  -12.1280   27.8202 C   0  0  0  0  0  0
    0.0975  -13.1161   27.8844 C   0  0  0  0  0  0
   -1.7010  -15.3535   27.8805 N   0  0  0  0  0  0
   -2.9319  -16.1372   27.9622 C   0  0  0  0  0  0
   -2.7805  -17.6573   27.8840 C   0  0  0  0  0  0
   -3.8399  -18.4875   27.4401 C   0  0  0  0  0  0
   -5.0989  -17.9115   26.8110 C   0  0  0  0  0  0
   -5.9297  -18.8631   26.4099 F   0  0  0  0  0  0
   -5.7315  -17.1574   27.6950 F   0  0  0  0  0  0
   -4.8043  -17.1780   25.7423 F   0  0  0  0  0  0
   -3.7329  -19.8854   27.6025 C   0  0  0  0  0  0
   -2.5778  -20.4687   28.1388 C   0  0  0  0  0  0
   -1.4961  -19.6513   28.4825 C   0  0  0  0  0  0
   -1.5973  -18.2585   28.3525 C   0  0  0  0  0  0
    0.6503  -14.3653   24.7460 H   0  0  0  0  0  0
    2.3514  -12.5548   24.7025 H   0  0  0  0  0  0
    3.3063  -10.3951   25.0606 H   0  0  0  0  0  0
    3.6649   -9.1777   26.2484 H   0  0  0  0  0  0
    5.8278   -9.4908   24.6382 H   0  0  0  0  0  0
    8.7530  -11.9941   26.5324 H   0  0  0  0  0  0
    4.6992  -12.1913   27.8209 H   0  0  0  0  0  0
    1.1965  -11.3076   29.7516 H   0  0  0  0  0  0
   -0.5136  -13.2172   28.7671 H   0  0  0  0  0  0
   -1.3556  -14.9637   28.7575 H   0  0  0  0  0  0
   -3.6326  -15.7601   27.2195 H   0  0  0  0  0  0
   -3.3861  -15.9044   28.9264 H   0  0  0  0  0  0
   -4.5420  -20.5344   27.2996 H   0  0  0  0  0  0
   -2.5115  -21.5414   28.2512 H   0  0  0  0  0  0
   -0.5865  -20.0893   28.8723 H   0  0  0  0  0  0
   -0.7693  -17.6465   28.6836 H   0  0  0  0  0  0
  1  2  2  0  0  0
  2  3  1  0  0  0
  2 22  1  0  0  0
  3 21  1  0  0  0
  3  4  2  0  0  0
  4  5  1  0  0  0
  4 34  1  0  0  0
  5  6  2  0  0  0
  5 35  1  0  0  0
  6  7  1  0  0  0
  6 20  1  0  0  0
  7  8  1  0  0  0
  7 17  1  0  0  0
  8  9  1  0  0  0
  8 36  1  0  0  0
  8 37  1  0  0  0
  9 16  1  0  0  0
  9 10  2  0  0  0
 10 11  1  0  0  0
 10 38  1  0  0  0
 11 12  1  0  0  0
 11 13  2  0  0  0
 13 14  1  0  0  0
 13 39  1  0  0  0
 14 15  1  0  0  0
 14 16  2  0  0  0
 16 40  1  0  0  0
 17 18  1  0  0  0
 17 19  2  0  0  0
 18 20  1  0  0  0
 18 41  1  0  0  0
 20 21  2  0  0  0
 21 42  1  0  0  0
 22 23  1  0  0  0
 22 43  1  0  0  0
 23 24  1  0  0  0
 23 44  1  0  0  0
 23 45  1  0  0  0
 24 33  1  0  0  0
 24 25  2  0  0  0
 25 26  1  0  0  0
 25 30  1  0  0  0
 26 27  1  0  0  0
 26 28  1  0  0  0
 26 29  1  0  0  0
 30 31  2  0  0  0
 30 46  1  0  0  0
 31 32  1  0  0  0
 31 47  1  0  0  0
 32 33  2  0  0  0
 32 48  1  0  0  0
 33 49  1  0  0  0
M  END
> <s_m_entry_id>
90

> <s_m_entry_name>
sEH_lig_6g.1

> <s_m_Source_Path>
C:\Users\yujiethinkpad\Desktop\selection\selection\sEH_pose

> <s_m_Source_File>
sEH_lig_6g.sdf

> <i_m_Source_File_Index>
1

> <i_lp_mmshare_version>
51139

> <i_f3d_flags>
0

> <s_epik_input>
W2NIXTFbY0hdW2NIXVtjSF1jKEMoRikoRilGKWMxW0NIMl1bTkhdQyg9TyljKFtjSF1bY0hdMilbY0hdYyhjMjMpW25IXWMoPU8pbjNbQ0gyXWM0W2NIXWMoRilbY0hdYyhGKVtjSF00

> <s_epik_cmdline>
J2VwaWtfcHl0aG9uJywgJy1waHQnLCAnMi4wJywgJy1waCcsICc3LjAnLCAnLXRuJywgJzgnLCAnLW1hJywgJzIwMCcsICctaW1hZScsICc8aW5maWxlLm1hZT4nLCAnLW9tYWUnLCAnPG91dGZpbGUubWFlPic=

> <r_epik_Ionization_Penalty>
  0.0000

> <r_epik_Ionization_Penalty_Charging>
  0.0000

> <r_epik_Ionization_Penalty_Neutral>
  0.0000

> <r_epik_State_Penalty>
  0.0000

> <r_epik_Charging_Adjusted_Penalty>
2.36287e-05

> <i_epik_Tot_Q>
0

> <i_epik_Tot_abs_Q>
0

> <s_lp_Force_Field>
OPLS3e

> <r_lp_Energy>
30.5919

> <b_lp_Chiralities_Consistent>
1

> <s_lp_Variant>
/home/yujie/leadopt/data/result/selection/sEH/lig_6g.sdf:1-1

> <s_i_glide_gridfile>
glide-grid_sEH

> <i_i_glide_lignum>
10

> <i_i_glide_rotatable_bonds>
7

> <r_i_docking_score>
-11.3920385236965

> <r_i_glide_ligand_efficiency>
-0.345213288596863

> <r_i_glide_ligand_efficiency_sa>
-1.10728347305465

> <r_i_glide_ligand_efficiency_ln>
-2.53353038285142

> <r_i_glide_gscore>
-11.3920385236965

> <r_i_glide_lipo>
-4.04680874893992

> <r_i_glide_hbond>
-0.72

> <r_i_glide_metal>
0

> <r_i_glide_rewards>
-2.95792331541646

> <r_i_glide_evdw>
-47.074146270752

> <r_i_glide_ecoul>
-11.2075786590576

> <r_i_glide_erotb>
0.567537653056152

> <r_i_glide_esite>
-0.2

> <r_i_glide_emodel>
-83.6810319800685

> <r_i_glide_energy>
-58.2817249298096

> <r_i_glide_einternal>
2.03467130661011

> <i_i_glide_confnum>
44

> <i_i_glide_posenum>
354

> <r_i_glide_eff_state_penalty>
0

> <r_lp_tautomer_probability>
1

> <s_m_job_name>
glide-dock_SP_all

> <r_glide_shape_similarity>
0.849309921264648

> <s_m_subgroup_title>
glide-dock_SP_all_pv1

> <s_m_subgroupid>
glide-dock_SP_all_pv1

> <b_m_subgroup_collapsed>
0

$$$$
