/home/yujie/leadopt/data/result/selection/sEH/lig_8d.sdf:1
                    3D
 Schrodinger Suite 2021-2.
 60 64  0  0  1  0            999 V2000
   -1.5006  -15.4261   25.6644 O   0  0  0  0  0  0
   -1.1448  -14.9536   26.7384 C   0  0  0  0  0  0
   -0.0497  -13.9339   26.7589 C   0  0  0  0  0  0
    0.7671  -13.7485   25.6242 C   0  0  0  0  0  0
    1.7268  -12.7277   25.5905 C   0  0  0  0  0  0
    1.8750  -11.8975   26.7061 C   0  0  0  0  0  0
    2.6967  -10.8125   26.9485 N   0  0  0  0  0  0
    3.6566  -10.2340   26.0299 C   0  0  0  0  0  0
    5.0758  -10.7577   26.1947 C   0  0  0  0  0  0
    6.0835  -10.2371   25.3673 C   0  0  0  0  0  0
    7.4028  -10.6934   25.4874 C   0  0  0  0  0  0
    8.3647  -10.1858   24.6906 F   0  0  0  0  0  0
    7.7261  -11.6666   26.4384 C   0  0  0  0  0  0
    6.7306  -12.1887   27.2713 C   0  0  0  0  0  0
    5.4117  -11.7355   27.1504 C   0  0  0  0  0  0
    2.4774  -10.3685   28.2385 C   0  0  0  0  0  0
    1.5066  -11.1188   28.8362 C   0  0  0  0  0  0
    1.0928  -12.0810   27.8751 C   0  0  0  0  0  0
    0.1205  -13.0922   27.8690 C   0  0  0  0  0  0
   -1.7458  -15.2691   27.8953 N   0  0  0  0  0  0
   -2.9651  -16.0714   27.9709 C   0  0  0  0  0  0
   -2.7209  -17.5693   27.9674 C   0  0  0  0  0  0
   -3.6774  -18.5103   27.5134 C   0  0  0  0  0  0
   -4.9799  -18.0433   26.8783 C   0  0  0  0  0  0
   -5.6792  -17.3072   27.7336 F   0  0  0  0  0  0
   -4.7420  -17.3166   25.7922 F   0  0  0  0  0  0
   -5.7306  -19.0706   26.5093 F   0  0  0  0  0  0
   -3.3930  -19.8947   27.6518 C   0  0  0  0  0  0
   -2.1572  -20.3368   28.1809 C   0  0  0  0  0  0
   -1.7225  -21.5961   28.2940 N   0  5  0  0  0  0
   -2.5363  -22.9470   28.5706 S   0  0  0  0  0  0
   -2.7952  -23.5625   26.8543 C   0  0  0  0  0  0
   -1.6546  -24.3564   26.2612 C   0  0  0  0  0  0
   -2.8574  -25.0705   26.8301 C   0  0  0  0  0  0
   -3.8718  -22.7006   29.1364 O   0  0  0  0  0  0
   -1.6859  -23.9359   29.2524 O   0  0  0  0  0  0
   -1.2427  -19.3782   28.6103 C   0  0  0  0  0  0
   -1.5118  -18.0213   28.5065 C   0  0  0  0  0  0
    0.6455  -14.3718   24.7508 H   0  0  0  0  0  0
    2.3262  -12.5781   24.7038 H   0  0  0  0  0  0
    3.3265  -10.4130   25.0061 H   0  0  0  0  0  0
    3.6473   -9.1523   26.1709 H   0  0  0  0  0  0
    5.8469   -9.4902   24.6230 H   0  0  0  0  0  0
    8.7462  -12.0060   26.5335 H   0  0  0  0  0  0
    6.9781  -12.9359   28.0122 H   0  0  0  0  0  0
    4.6681  -12.1549   27.8105 H   0  0  0  0  0  0
    3.0426   -9.5361   28.6302 H   0  0  0  0  0  0
    1.1117  -11.0048   29.8343 H   0  0  0  0  0  0
   -0.5116  -13.1919   28.7359 H   0  0  0  0  0  0
   -1.3792  -14.9149   28.7785 H   0  0  0  0  0  0
   -3.6491  -15.7621   27.1831 H   0  0  0  0  0  0
   -3.4639  -15.8197   28.9076 H   0  0  0  0  0  0
   -4.1125  -20.6255   27.3142 H   0  0  0  0  0  0
   -3.4619  -22.9584   26.2455 H   0  0  0  0  0  0
   -0.7245  -24.4061   26.8247 H   0  0  0  0  0  0
   -1.5460  -24.3433   25.1788 H   0  0  0  0  0  0
   -3.5982  -25.5119   26.1771 H   0  0  0  0  0  0
   -2.7143  -25.6151   27.7599 H   0  0  0  0  0  0
   -0.3014  -19.6819   29.0516 H   0  0  0  0  0  0
   -0.7731  -17.3324   28.8902 H   0  0  0  0  0  0
  1  2  2  0  0  0
  2  3  1  0  0  0
  2 20  1  0  0  0
  3 19  1  0  0  0
  3  4  2  0  0  0
  4  5  1  0  0  0
  4 39  1  0  0  0
  5  6  2  0  0  0
  5 40  1  0  0  0
  6  7  1  0  0  0
  6 18  1  0  0  0
  7  8  1  0  0  0
  7 16  1  0  0  0
  8  9  1  0  0  0
  8 41  1  0  0  0
  8 42  1  0  0  0
  9 15  1  0  0  0
  9 10  2  0  0  0
 10 11  1  0  0  0
 10 43  1  0  0  0
 11 12  1  0  0  0
 11 13  2  0  0  0
 13 14  1  0  0  0
 13 44  1  0  0  0
 14 15  2  0  0  0
 14 45  1  0  0  0
 15 46  1  0  0  0
 16 17  2  0  0  0
 16 47  1  0  0  0
 17 18  1  0  0  0
 17 48  1  0  0  0
 18 19  2  0  0  0
 19 49  1  0  0  0
 20 21  1  0  0  0
 20 50  1  0  0  0
 21 22  1  0  0  0
 21 51  1  0  0  0
 21 52  1  0  0  0
 22 38  1  0  0  0
 22 23  2  0  0  0
 23 24  1  0  0  0
 23 28  1  0  0  0
 24 25  1  0  0  0
 24 26  1  0  0  0
 24 27  1  0  0  0
 28 29  2  0  0  0
 28 53  1  0  0  0
 29 30  1  0  0  0
 29 37  1  0  0  0
 30 31  1  0  0  0
 31 32  1  0  0  0
 31 35  2  0  0  0
 31 36  2  0  0  0
 32 34  1  0  0  0
 32 33  1  0  0  0
 32 54  1  0  0  0
 33 34  1  0  0  0
 33 55  1  0  0  0
 33 56  1  0  0  0
 34 57  1  0  0  0
 34 58  1  0  0  0
 37 38  2  0  0  0
 37 59  1  0  0  0
 38 60  1  0  0  0
M  CHG  1  30  -1
M  END
> <s_m_entry_id>
77

> <s_m_entry_name>
sEH_lig_8d.1

> <s_m_Source_Path>
C:\Users\yujiethinkpad\Desktop\selection\selection\sEH_pose

> <s_m_Source_File>
sEH_lig_8d.sdf

> <i_m_Source_File_Index>
1

> <i_lp_mmshare_version>
51139

> <i_f3d_flags>
0

> <s_epik_input>
W0NIMl0xW0NIMl1bQ0hdMVMoPU8pKD1PKVtOSF1jKFtjSF1bY0hdMilbY0hdYyhDKEYpKEYpRiljMltDSDJdW05IXUMoPU8pYyhbY0hdW2NIXTMpW2NIXWMoYzM0KVtjSF1bY0hdbjRbQ0gyXWM1W2NIXWMoRilbY0hdW2NIXVtjSF01

> <s_epik_cmdline>
J2VwaWtfcHl0aG9uJywgJy1waHQnLCAnMi4wJywgJy1waCcsICc3LjAnLCAnLXRuJywgJzgnLCAnLW1hJywgJzIwMCcsICctaW1hZScsICc8aW5maWxlLm1hZT4nLCAnLW9tYWUnLCAnPG91dGZpbGUubWFlPic=

> <r_epik_Ionization_Penalty>
  1.2618

> <r_epik_Ionization_Penalty_Charging>
  1.2618

> <r_epik_Ionization_Penalty_Neutral>
  0.0000

> <r_epik_State_Penalty>
  1.3325

> <r_epik_Charging_Adjusted_Penalty>
2.59425

> <i_epik_Tot_Q>
-1

> <i_epik_Tot_abs_Q>
1

> <s_lp_Force_Field>
OPLS3e

> <r_lp_Energy>
55.7191

> <b_lp_Chiralities_Consistent>
1

> <s_lp_Variant>
/home/yujie/leadopt/data/result/selection/sEH/lig_8d.sdf:1-2

> <s_i_glide_gridfile>
glide-grid_sEH

> <i_i_glide_lignum>
28

> <i_i_glide_rotatable_bonds>
10

> <r_i_docking_score>
-11.7325872768863

> <r_i_glide_ligand_efficiency>
-0.308752296760167

> <r_i_glide_ligand_efficiency_sa>
-1.03801762724175

> <r_i_glide_ligand_efficiency_ln>
-2.52989095464667

> <r_i_glide_gscore>
-13.0650872768863

> <r_i_glide_lipo>
-5.26283976475456

> <r_i_glide_hbond>
-0.72

> <r_i_glide_metal>
0

> <r_i_glide_rewards>
-2.58724117419236

> <r_i_glide_evdw>
-57.2566108703613

> <r_i_glide_ecoul>
-13.7361164093018

> <r_i_glide_erotb>
0.628241666973903

> <r_i_glide_esite>
-0.2

> <r_i_glide_emodel>
-126.703069709847

> <r_i_glide_energy>
-70.9927272796631

> <r_i_glide_einternal>
3.52911949157715

> <i_i_glide_confnum>
21

> <i_i_glide_posenum>
361

> <r_i_glide_eff_state_penalty>
1.3325

> <s_m_job_name>
glide-dock_SP_all

> <r_glide_shape_similarity>
0.942685902118683

> <s_m_subgroup_title>
glide-dock_SP_all_pv1

> <s_m_subgroupid>
glide-dock_SP_all_pv1

> <b_m_subgroup_collapsed>
0

$$$$
