/home/yujie/leadopt/data/result/selection/sEH/lig_9a.sdf:1
                    3D
 Schrodinger Suite 2021-2.
 54 57  0  0  1  0            999 V2000
   -1.4992  -15.4170   25.6400 O   0  0  0  0  0  0
   -1.1351  -14.9707   26.7213 C   0  0  0  0  0  0
   -0.0493  -13.9389   26.7543 C   0  0  0  0  0  0
    0.7703  -13.7485   25.6234 C   0  0  0  0  0  0
    1.7279  -12.7271   25.5907 C   0  0  0  0  0  0
    1.8743  -11.8973   26.7061 C   0  0  0  0  0  0
    2.6961  -10.8129   26.9495 N   0  0  0  0  0  0
    3.6561  -10.2340   26.0292 C   0  0  0  0  0  0
    5.0740  -10.7582   26.1895 C   0  0  0  0  0  0
    5.4092  -11.7346   27.1466 C   0  0  0  0  0  0
    6.7287  -12.1774   27.2712 C   0  0  0  0  0  0
    7.0435  -13.0730   28.2292 F   0  0  0  0  0  0
    7.7262  -11.6673   26.4342 C   0  0  0  0  0  0
    7.4051  -10.6913   25.4828 C   0  0  0  0  0  0
    6.0840  -10.2359   25.3653 C   0  0  0  0  0  0
    2.4764  -10.3677   28.2390 C   0  0  0  0  0  0
    1.5065  -11.1205   28.8365 C   0  0  0  0  0  0
    1.0905  -12.0829   27.8742 C   0  0  0  0  0  0
    0.1176  -13.0967   27.8659 C   0  0  0  0  0  0
   -1.7100  -15.3391   27.8746 N   0  0  0  0  0  0
   -2.9379  -16.1321   27.9509 C   0  0  0  0  0  0
   -2.7732  -17.6453   27.8941 C   0  0  0  0  0  0
   -3.8521  -18.4564   27.4974 C   0  0  0  0  0  0
   -3.7710  -19.8522   27.6518 C   0  0  0  0  0  0
   -2.6169  -20.4514   28.1900 C   0  0  0  0  0  0
   -2.6500  -21.8096   28.5098 N   0  0  0  0  0  0
   -1.4442  -23.0338   28.3057 S   0  0  0  0  0  0
   -1.6313  -23.4578   26.5329 C   0  0  0  0  0  0
   -1.8890  -24.1663   29.1264 O   0  0  0  0  0  0
   -0.1303  -22.4214   28.5330 O   0  0  0  0  0  0
   -1.5071  -19.6465   28.4877 C   0  0  0  0  0  0
   -1.5886  -18.2540   28.3421 C   0  0  0  0  0  0
    0.6599  -14.3745   24.7503 H   0  0  0  0  0  0
    2.3340  -12.5781   24.7100 H   0  0  0  0  0  0
    3.3201  -10.4124   25.0073 H   0  0  0  0  0  0
    3.6558   -9.1527   26.1690 H   0  0  0  0  0  0
    4.6676  -12.1577   27.8070 H   0  0  0  0  0  0
    8.7427  -12.0146   26.5354 H   0  0  0  0  0  0
    8.1758  -10.2837   24.8459 H   0  0  0  0  0  0
    5.8463   -9.4768   24.6351 H   0  0  0  0  0  0
    3.0387   -9.5349   28.6359 H   0  0  0  0  0  0
    1.1124  -11.0075   29.8357 H   0  0  0  0  0  0
   -0.5131  -13.2031   28.7343 H   0  0  0  0  0  0
   -1.3604  -14.9556   28.7527 H   0  0  0  0  0  0
   -3.6363  -15.8135   27.1749 H   0  0  0  0  0  0
   -3.4200  -15.8873   28.8986 H   0  0  0  0  0  0
   -4.7703  -18.0087   27.1455 H   0  0  0  0  0  0
   -4.6322  -20.4569   27.4069 H   0  0  0  0  0  0
   -3.5818  -22.1808   28.5911 H   0  0  0  0  0  0
   -0.9264  -24.2491   26.2810 H   0  0  0  0  0  0
   -1.4226  -22.5763   25.9282 H   0  0  0  0  0  0
   -2.6465  -23.8044   26.3441 H   0  0  0  0  0  0
   -0.6074  -20.0685   28.9114 H   0  0  0  0  0  0
   -0.7472  -17.6514   28.6531 H   0  0  0  0  0  0
  1  2  2  0  0  0
  2  3  1  0  0  0
  2 20  1  0  0  0
  3 19  1  0  0  0
  3  4  2  0  0  0
  4  5  1  0  0  0
  4 33  1  0  0  0
  5  6  2  0  0  0
  5 34  1  0  0  0
  6  7  1  0  0  0
  6 18  1  0  0  0
  7  8  1  0  0  0
  7 16  1  0  0  0
  8  9  1  0  0  0
  8 35  1  0  0  0
  8 36  1  0  0  0
  9 15  1  0  0  0
  9 10  2  0  0  0
 10 11  1  0  0  0
 10 37  1  0  0  0
 11 12  1  0  0  0
 11 13  2  0  0  0
 13 14  1  0  0  0
 13 38  1  0  0  0
 14 15  2  0  0  0
 14 39  1  0  0  0
 15 40  1  0  0  0
 16 17  2  0  0  0
 16 41  1  0  0  0
 17 18  1  0  0  0
 17 42  1  0  0  0
 18 19  2  0  0  0
 19 43  1  0  0  0
 20 21  1  0  0  0
 20 44  1  0  0  0
 21 22  1  0  0  0
 21 45  1  0  0  0
 21 46  1  0  0  0
 22 32  1  0  0  0
 22 23  2  0  0  0
 23 24  1  0  0  0
 23 47  1  0  0  0
 24 25  2  0  0  0
 24 48  1  0  0  0
 25 26  1  0  0  0
 25 31  1  0  0  0
 26 27  1  0  0  0
 26 49  1  0  0  0
 27 28  1  0  0  0
 27 29  2  0  0  0
 27 30  2  0  0  0
 28 50  1  0  0  0
 28 51  1  0  0  0
 28 52  1  0  0  0
 31 32  2  0  0  0
 31 53  1  0  0  0
 32 54  1  0  0  0
M  END
> <s_m_entry_id>
83

> <s_m_entry_name>
sEH_lig_9a.1

> <s_m_Source_Path>
C:\Users\yujiethinkpad\Desktop\selection\selection\sEH_pose

> <s_m_Source_File>
sEH_lig_9a.sdf

> <i_m_Source_File_Index>
1

> <i_lp_mmshare_version>
51139

> <i_f3d_flags>
0

> <s_epik_input>
W0NIM11TKD1PKSg9TylbTkhdYyhbY0hdW2NIXTEpW2NIXVtjSF1jMVtDSDJdW05IXUMoPU8pYyhbY0hdW2NIXTIpW2NIXWMoYzIzKVtjSF1bY0hdbjNbQ0gyXWM0W2NIXWMoRilbY0hdW2NIXVtjSF00

> <s_epik_cmdline>
J2VwaWtfcHl0aG9uJywgJy1waHQnLCAnMi4wJywgJy1waCcsICc3LjAnLCAnLXRuJywgJzgnLCAnLW1hJywgJzIwMCcsICctaW1hZScsICc8aW5maWxlLm1hZT4nLCAnLW9tYWUnLCAnPG91dGZpbGUubWFlPic=

> <r_epik_Ionization_Penalty>
  0.0129

> <r_epik_Ionization_Penalty_Charging>
  0.0000

> <r_epik_Ionization_Penalty_Neutral>
  0.0129

> <r_epik_State_Penalty>
  0.0100

> <r_epik_Charging_Adjusted_Penalty>
0.0100458

> <i_epik_Tot_Q>
0

> <i_epik_Tot_abs_Q>
0

> <s_lp_Force_Field>
OPLS3e

> <r_lp_Energy>
31.0817

> <b_lp_Chiralities_Consistent>
1

> <s_lp_Variant>
/home/yujie/leadopt/data/result/selection/sEH/lig_9a.sdf:1-1

> <s_i_glide_gridfile>
glide-grid_sEH

> <i_i_glide_lignum>
32

> <i_i_glide_rotatable_bonds>
8

> <r_i_docking_score>
-11.4778216843878

> <r_i_glide_ligand_efficiency>
-0.358681927637118

> <r_i_glide_ligand_efficiency_sa>
-1.13874413719076

> <r_i_glide_ligand_efficiency_ln>
-2.57019714873688

> <r_i_glide_gscore>
-11.4878216843878

> <r_i_glide_lipo>
-4.60860413612494

> <r_i_glide_hbond>
-0.72

> <r_i_glide_metal>
0

> <r_i_glide_rewards>
-2.05595870008429

> <r_i_glide_evdw>
-53.5066452026367

> <r_i_glide_ecoul>
-12.7775735855103

> <r_i_glide_erotb>
0.688709449779816

> <r_i_glide_esite>
-0.2

> <r_i_glide_emodel>
-103.000513360633

> <r_i_glide_energy>
-66.284218788147

> <r_i_glide_einternal>
4.63516426086426

> <i_i_glide_confnum>
117

> <i_i_glide_posenum>
137

> <r_i_glide_eff_state_penalty>
0.01

> <s_m_job_name>
glide-dock_SP_all

> <r_glide_shape_similarity>
0.878888845443726

> <s_m_subgroup_title>
glide-dock_SP_all_pv1

> <s_m_subgroupid>
glide-dock_SP_all_pv1

> <b_m_subgroup_collapsed>
0

$$$$
