sEH5
                    3D
 Schrodinger Suite 2021-2.
 60 63  0  0  1  0            999 V2000
   -1.3298  -15.3327   25.6997 O   0  0  0  0  0  0
   -0.9895  -14.8222   26.7677 C   0  0  0  0  0  0
    0.2368  -13.9651   26.8555 C   0  0  0  0  0  0
    1.2809  -14.1571   25.9276 C   0  0  0  0  0  0
    2.4257  -13.3495   25.9698 C   0  0  0  0  0  0
    2.5191  -12.3218   26.9249 C   0  0  0  0  0  0
    1.4777  -12.0894   27.8721 C   0  0  0  0  0  0
    1.8702  -10.9869   28.7005 C   0  0  0  0  0  0
    3.1051  -10.5895   28.2618 C   0  0  0  0  0  0
    3.5061  -11.3869   27.1966 N   0  0  0  0  0  0
    5.0181  -11.2281   26.3764 S   0  0  0  0  0  0
    4.5417  -10.3394   24.8125 C   0  0  0  0  0  0
    3.4702   -9.2730   25.0633 C   0  0  0  0  0  0
    4.1476  -11.2996   23.6790 C   0  0  0  0  0  0
    5.4682  -12.5968   26.0787 O   0  0  0  0  0  0
    5.8243  -10.3308   27.2169 O   0  0  0  0  0  0
    0.3430  -12.9327   27.8179 C   0  0  0  0  0  0
   -1.6699  -15.0178   27.9006 N   0  0  0  0  0  0
   -2.8654  -15.8382   28.0303 C   0  0  0  0  0  0
   -2.5934  -17.3406   28.0909 C   0  0  0  0  0  0
   -3.5724  -18.2803   27.6715 C   0  0  0  0  0  0
   -4.9103  -17.8374   27.0824 C   0  0  0  0  0  0
   -5.7298  -18.8705   26.8943 F   0  0  0  0  0  0
   -5.5202  -16.9837   27.9006 F   0  0  0  0  0  0
   -4.7157  -17.2507   25.9010 F   0  0  0  0  0  0
   -3.2968  -19.6610   27.7846 C   0  0  0  0  0  0
   -2.0628  -20.1217   28.2854 C   0  0  0  0  0  0
   -1.7654  -21.4849   28.3675 N   0  0  0  0  0  0
   -2.8393  -22.8397   28.2358 S   0  0  0  0  0  0
   -1.6595  -24.2594   28.1766 C   0  0  0  0  0  0
   -2.1856  -25.4448   27.4018 C   0  0  0  0  0  0
   -1.1391  -24.5431   26.7866 C   0  0  0  0  0  0
   -3.5896  -22.8732   29.5006 O   0  0  0  0  0  0
   -3.5298  -22.7037   26.9434 O   0  0  0  0  0  0
   -1.0984  -19.1867   28.7005 C   0  0  0  0  0  0
   -1.3609  -17.8091   28.6036 C   0  0  0  0  0  0
    1.2190  -14.9327   25.1799 H   0  0  0  0  0  0
    3.2308  -13.5310   25.2757 H   0  0  0  0  0  0
    1.2960  -10.5662   29.5127 H   0  0  0  0  0  0
    3.7431   -9.7985   28.6293 H   0  0  0  0  0  0
    5.4555   -9.8357   24.4973 H   0  0  0  0  0  0
    3.3455   -8.6336   24.1919 H   0  0  0  0  0  0
    3.7332   -8.6323   25.9006 H   0  0  0  0  0  0
    2.5056   -9.7327   25.2797 H   0  0  0  0  0  0
    4.0627  -10.7649   22.7323 H   0  0  0  0  0  0
    4.8881  -12.0877   23.5423 H   0  0  0  0  0  0
    3.1810  -11.7652   23.8629 H   0  0  0  0  0  0
   -0.4555  -12.7594   28.5267 H   0  0  0  0  0  0
   -1.3293  -14.6196   28.7800 H   0  0  0  0  0  0
   -3.3716  -15.5446   28.9511 H   0  0  0  0  0  0
   -3.5449  -15.5925   27.2177 H   0  0  0  0  0  0
   -4.0414  -20.3715   27.4643 H   0  0  0  0  0  0
   -0.8341  -21.6988   28.6933 H   0  0  0  0  0  0
   -1.0364  -24.3804   29.0604 H   0  0  0  0  0  0
   -1.8683  -26.4358   27.7208 H   0  0  0  0  0  0
   -3.1959  -25.3872   27.0013 H   0  0  0  0  0  0
   -1.4501  -23.8914   25.9726 H   0  0  0  0  0  0
   -0.1298  -24.9327   26.7009 H   0  0  0  0  0  0
   -0.1501  -19.5193   29.1006 H   0  0  0  0  0  0
   -0.6071  -17.1152   28.9478 H   0  0  0  0  0  0
  1  2  2  0  0  0
  2  3  1  0  0  0
  2 18  1  0  0  0
  3 17  1  0  0  0
  3  4  2  0  0  0
  4  5  1  0  0  0
  4 37  1  0  0  0
  5  6  2  0  0  0
  5 38  1  0  0  0
  6 10  1  0  0  0
  6  7  1  0  0  0
  7  8  1  0  0  0
  7 17  2  0  0  0
  8  9  2  0  0  0
  8 39  1  0  0  0
  9 10  1  0  0  0
  9 40  1  0  0  0
 10 11  1  0  0  0
 11 12  1  0  0  0
 11 15  2  0  0  0
 11 16  2  0  0  0
 12 13  1  0  0  0
 12 14  1  0  0  0
 12 41  1  0  0  0
 13 42  1  0  0  0
 13 43  1  0  0  0
 13 44  1  0  0  0
 14 45  1  0  0  0
 14 46  1  0  0  0
 14 47  1  0  0  0
 17 48  1  0  0  0
 18 19  1  0  0  0
 18 49  1  0  0  0
 19 20  1  0  0  0
 19 50  1  0  0  0
 19 51  1  0  0  0
 20 36  1  0  0  0
 20 21  2  0  0  0
 21 22  1  0  0  0
 21 26  1  0  0  0
 22 23  1  0  0  0
 22 24  1  0  0  0
 22 25  1  0  0  0
 26 27  2  0  0  0
 26 52  1  0  0  0
 27 28  1  0  0  0
 27 35  1  0  0  0
 28 29  1  0  0  0
 28 53  1  0  0  0
 29 30  1  0  0  0
 29 33  2  0  0  0
 29 34  2  0  0  0
 30 32  1  0  0  0
 30 31  1  0  0  0
 30 54  1  0  0  0
 31 32  1  0  0  0
 31 55  1  0  0  0
 31 56  1  0  0  0
 32 57  1  0  0  0
 32 58  1  0  0  0
 35 36  2  0  0  0
 35 59  1  0  0  0
 36 60  1  0  0  0
M  END
> <s_m_entry_id>
118

> <s_m_entry_name>
sEH_lig_11h.1

> <s_m_Source_Path>
C:\Users\yujiethinkpad\Desktop\selection\selection\sEH_pose

> <s_m_Source_File>
sEH_lig_11h.sdf

> <i_m_Source_File_Index>
1

> <i_lp_mmshare_version>
54117

> <i_f3d_flags>
0

> <s_epik_input>
W0NIM11bQ0hdKFtDSDNdKVMoPU8pKD1PKW4xW2NIXVtjSF1jKGMxMilbY0hdYyhbY0hdW2NIXTIpQyg9TylbTkhdW0NIMl1jM2MoQyhGKShGKUYpW2NIXWMoW2NIXVtjSF0zKVtOSF1TKD1PKSg9TylbQ0hdNFtDSDJdW0NIMl00

> <s_epik_cmdline>
J2VwaWtfcHl0aG9uJywgJy1waCcsICc3LjAnLCAnLXRuJywgJzgnLCAnLW1hJywgJzUwMCcsICctaW1hZScsICc8aW5maWxlLm1hZT4nLCAnLW9tYWUnLCAnPG91dGZpbGUubWFlPic=

> <r_epik_Ionization_Penalty>
  0.0750

> <r_epik_Ionization_Penalty_Charging>
  0.0000

> <r_epik_Ionization_Penalty_Neutral>
  0.0750

> <r_epik_State_Penalty>
  0.0661

> <r_epik_Charging_Adjusted_Penalty>
0.0660634356669498

> <i_epik_Tot_Q>
0

> <i_epik_Tot_abs_Q>
0

> <s_lp_Force_Field>
S-OPLS

> <r_lp_Energy>
35.647381

> <b_lp_Chiralities_Consistent>
1

> <s_lp_Variant>
/home/yujie/leadopt/data/result/selection/sEH/lig_11h.sdf:1-1

> <s_i_glide_gridfile>
glide-grid_sEH

> <i_i_glide_lignum>
1

> <i_i_glide_rotatable_bonds>
10

> <r_i_docking_score>
-11.6439497309771

> <r_i_glide_ligand_efficiency>
-0.323443048082698

> <r_i_glide_ligand_efficiency_sa>
-1.06798541265408

> <r_i_glide_ligand_efficiency_ln>
-2.54039524813204

> <r_i_glide_gscore>
-11.7100497309771

> <r_i_glide_lipo>
-4.21919028547325

> <r_i_glide_hbond>
-0.72

> <r_i_glide_metal>
0

> <r_i_glide_rewards>
-2.41313993911519

> <r_i_glide_evdw>
-56.923957824707

> <r_i_glide_ecoul>
-12.4785356521606

> <r_i_glide_erotb>
0.560258732670777

> <r_i_glide_esite>
-0.2

> <r_i_glide_emodel>
-122.158323906061

> <r_i_glide_energy>
-69.4024934768677

> <r_i_glide_einternal>
3.6838595867157

> <i_i_glide_confnum>
80

> <i_i_glide_posenum>
169

> <r_i_glide_eff_state_penalty>
0.0661

> <s_m_job_name>
glide-dock_SP_11h

> <s_m_source_file>
ligprep_11h.maegz

> <i_m_source_file_index>
1

> <i_f3d_flags>
0

> <s_m_subgroup_title>
glide-dock_SP_11h_lib1

> <s_m_subgroupid>
glide-dock_SP_11h_lib1

> <b_m_subgroup_collapsed>
0

$$$$
