/home/yujie/leadopt/data/result/selection/sEH/lig_8c.sdf:1
                    3D
 Schrodinger Suite 2021-2.
 60 63  0  0  1  0            999 V2000
   -1.4976  -15.4111   25.6360 O   0  0  0  0  0  0
   -1.1412  -14.9539   26.7147 C   0  0  0  0  0  0
   -0.0487  -13.9327   26.7519 C   0  0  0  0  0  0
    0.7723  -13.7454   25.6221 C   0  0  0  0  0  0
    1.7306  -12.7255   25.5911 C   0  0  0  0  0  0
    1.8751  -11.8958   26.7066 C   0  0  0  0  0  0
    2.6966  -10.8114   26.9503 N   0  0  0  0  0  0
    3.6577  -10.2332   26.0312 C   0  0  0  0  0  0
    5.0755  -10.7572   26.1967 C   0  0  0  0  0  0
    6.0830  -10.2392   25.3670 C   0  0  0  0  0  0
    7.4026  -10.6937   25.4873 C   0  0  0  0  0  0
    8.3644  -10.1922   24.6833 F   0  0  0  0  0  0
    7.7264  -11.6698   26.4373 C   0  0  0  0  0  0
    6.7315  -12.1870   27.2754 C   0  0  0  0  0  0
    5.4108  -11.7379   27.1508 C   0  0  0  0  0  0
    2.4764  -10.3660   28.2397 C   0  0  0  0  0  0
    1.5068  -11.1192   28.8375 C   0  0  0  0  0  0
    1.0918  -12.0811   27.8747 C   0  0  0  0  0  0
    0.1193  -13.0942   27.8659 C   0  0  0  0  0  0
   -1.7368  -15.2943   27.8635 N   0  0  0  0  0  0
   -2.9552  -16.0952   27.9408 C   0  0  0  0  0  0
   -2.7248  -17.5991   27.9279 C   0  0  0  0  0  0
   -3.7017  -18.5287   27.4930 C   0  0  0  0  0  0
   -4.9919  -18.0454   26.8478 C   0  0  0  0  0  0
   -5.7005  -17.3304   27.7104 F   0  0  0  0  0  0
   -4.7429  -17.2991   25.7772 F   0  0  0  0  0  0
   -5.7300  -19.0690   26.4496 F   0  0  0  0  0  0
   -3.4629  -19.9182   27.6733 C   0  0  0  0  0  0
   -2.2561  -20.3633   28.2569 C   0  0  0  0  0  0
   -1.8954  -21.6771   28.5539 N   0  0  0  0  0  0
   -2.5069  -23.1944   28.0809 S   0  0  0  0  0  0
   -1.7405  -23.4349   26.4420 C   0  0  0  0  0  0
   -1.8783  -24.8870   25.9989 C   0  0  0  0  0  0
   -3.9621  -23.0482   27.9508 O   0  0  0  0  0  0
   -1.9170  -24.1440   29.0344 O   0  0  0  0  0  0
   -1.2907  -19.4290   28.6204 C   0  0  0  0  0  0
   -1.5145  -18.0689   28.4538 C   0  0  0  0  0  0
    0.6605  -14.3692   24.7476 H   0  0  0  0  0  0
    2.3381  -12.5756   24.7114 H   0  0  0  0  0  0
    3.3242  -10.4127   25.0086 H   0  0  0  0  0  0
    3.6571   -9.1520   26.1705 H   0  0  0  0  0  0
    5.8459   -9.4872   24.6293 H   0  0  0  0  0  0
    8.7427  -12.0214   26.5240 H   0  0  0  0  0  0
    6.9800  -12.9380   28.0107 H   0  0  0  0  0  0
    4.6646  -12.1631   27.8063 H   0  0  0  0  0  0
    3.0383   -9.5324   28.6358 H   0  0  0  0  0  0
    1.1121  -11.0073   29.8364 H   0  0  0  0  0  0
   -0.5124  -13.1976   28.7340 H   0  0  0  0  0  0
   -1.3745  -14.9325   28.7457 H   0  0  0  0  0  0
   -3.6409  -15.7730   27.1601 H   0  0  0  0  0  0
   -3.4470  -15.8445   28.8821 H   0  0  0  0  0  0
   -4.2088  -20.6369   27.3720 H   0  0  0  0  0  0
   -0.9919  -21.7536   28.9948 H   0  0  0  0  0  0
   -0.6899  -23.1585   26.5119 H   0  0  0  0  0  0
   -2.2270  -22.7553   25.7437 H   0  0  0  0  0  0
   -1.4458  -25.0380   25.0101 H   0  0  0  0  0  0
   -2.9261  -25.1849   25.9500 H   0  0  0  0  0  0
   -1.3717  -25.5612   26.6908 H   0  0  0  0  0  0
   -0.3605  -19.7456   29.0743 H   0  0  0  0  0  0
   -0.7516  -17.3895   28.8045 H   0  0  0  0  0  0
  1  2  2  0  0  0
  2  3  1  0  0  0
  2 20  1  0  0  0
  3 19  1  0  0  0
  3  4  2  0  0  0
  4  5  1  0  0  0
  4 38  1  0  0  0
  5  6  2  0  0  0
  5 39  1  0  0  0
  6  7  1  0  0  0
  6 18  1  0  0  0
  7  8  1  0  0  0
  7 16  1  0  0  0
  8  9  1  0  0  0
  8 40  1  0  0  0
  8 41  1  0  0  0
  9 15  1  0  0  0
  9 10  2  0  0  0
 10 11  1  0  0  0
 10 42  1  0  0  0
 11 12  1  0  0  0
 11 13  2  0  0  0
 13 14  1  0  0  0
 13 43  1  0  0  0
 14 15  2  0  0  0
 14 44  1  0  0  0
 15 45  1  0  0  0
 16 17  2  0  0  0
 16 46  1  0  0  0
 17 18  1  0  0  0
 17 47  1  0  0  0
 18 19  2  0  0  0
 19 48  1  0  0  0
 20 21  1  0  0  0
 20 49  1  0  0  0
 21 22  1  0  0  0
 21 50  1  0  0  0
 21 51  1  0  0  0
 22 37  1  0  0  0
 22 23  2  0  0  0
 23 24  1  0  0  0
 23 28  1  0  0  0
 24 25  1  0  0  0
 24 26  1  0  0  0
 24 27  1  0  0  0
 28 29  2  0  0  0
 28 52  1  0  0  0
 29 30  1  0  0  0
 29 36  1  0  0  0
 30 31  1  0  0  0
 30 53  1  0  0  0
 31 32  1  0  0  0
 31 34  2  0  0  0
 31 35  2  0  0  0
 32 33  1  0  0  0
 32 54  1  0  0  0
 32 55  1  0  0  0
 33 56  1  0  0  0
 33 57  1  0  0  0
 33 58  1  0  0  0
 36 37  2  0  0  0
 36 59  1  0  0  0
 37 60  1  0  0  0
M  END
> <s_m_entry_id>
64

> <s_m_entry_name>
sEH_lig_8c.1

> <s_m_Source_Path>
C:\Users\yujiethinkpad\Desktop\selection\selection\sEH_pose

> <s_m_Source_File>
sEH_lig_8c.sdf

> <i_m_Source_File_Index>
1

> <i_lp_mmshare_version>
51139

> <i_f3d_flags>
0

> <s_epik_input>
W0NIM11bQ0gyXVMoPU8pKD1PKVtOSF1jKFtjSF1bY0hdMSlbY0hdYyhDKEYpKEYpRiljMVtDSDJdW05IXUMoPU8pYyhbY0hdW2NIXTIpW2NIXWMoYzIzKVtjSF1bY0hdbjNbQ0gyXWM0W2NIXWMoRilbY0hdW2NIXVtjSF00

> <s_epik_cmdline>
J2VwaWtfcHl0aG9uJywgJy1waHQnLCAnMi4wJywgJy1waCcsICc3LjAnLCAnLXRuJywgJzgnLCAnLW1hJywgJzIwMCcsICctaW1hZScsICc8aW5maWxlLm1hZT4nLCAnLW9tYWUnLCAnPG91dGZpbGUubWFlPic=

> <r_epik_Ionization_Penalty>
  0.0999

> <r_epik_Ionization_Penalty_Charging>
  0.0000

> <r_epik_Ionization_Penalty_Neutral>
  0.0999

> <r_epik_State_Penalty>
  0.0900

> <r_epik_Charging_Adjusted_Penalty>
0.0899504

> <i_epik_Tot_Q>
0

> <i_epik_Tot_abs_Q>
0

> <s_lp_Force_Field>
OPLS3e

> <r_lp_Energy>
37.4909

> <b_lp_Chiralities_Consistent>
1

> <s_lp_Variant>
/home/yujie/leadopt/data/result/selection/sEH/lig_8c.sdf:1-1

> <s_i_glide_gridfile>
glide-grid_sEH

> <i_i_glide_lignum>
27

> <i_i_glide_rotatable_bonds>
10

> <r_i_docking_score>
-12.5209904928596

> <r_i_glide_ligand_efficiency>
-0.338405148455665

> <r_i_glide_ligand_efficiency_sa>
-1.12764102903619

> <r_i_glide_ligand_efficiency_ln>
-2.71550930423726

> <r_i_glide_gscore>
-12.6109904928596

> <r_i_glide_lipo>
-5.11603828715414

> <r_i_glide_hbond>
-0.72

> <r_i_glide_metal>
0

> <r_i_glide_rewards>
-2.58260147930991

> <r_i_glide_evdw>
-57.2394981384277

> <r_i_glide_ecoul>
-11.4015169143677

> <r_i_glide_erotb>
0.57985171768097

> <r_i_glide_esite>
-0.2

> <r_i_glide_emodel>
-119.342677717589

> <r_i_glide_energy>
-68.6410150527954

> <r_i_glide_einternal>
3.8131058216095

> <i_i_glide_confnum>
196

> <i_i_glide_posenum>
395

> <r_i_glide_eff_state_penalty>
0.09

> <s_m_job_name>
glide-dock_SP_all

> <r_glide_shape_similarity>
0.939366161823273

> <s_m_subgroup_title>
glide-dock_SP_all_pv1

> <s_m_subgroupid>
glide-dock_SP_all_pv1

> <b_m_subgroup_collapsed>
0

$$$$
