/home/yujie/leadopt/data/result/selection/sEH/lig_11k.sdf:1
                    3D
 Schrodinger Suite 2021-2.
 63 66  0  0  1  0            999 V2000
   -1.4910  -15.4230   25.6550 O   0  0  0  0  0  0
   -1.1376  -14.9575   26.7320 C   0  0  0  0  0  0
   -0.0481  -13.9326   26.7587 C   0  0  0  0  0  0
    0.7655  -13.7403   25.6232 C   0  0  0  0  0  0
    1.7286  -12.7251   25.5928 C   0  0  0  0  0  0
    1.8911  -11.9042   26.7125 C   0  0  0  0  0  0
    2.7474  -10.8462   26.9673 N   0  0  0  0  0  0
    3.7198  -10.2716   26.0536 C   0  0  0  0  0  0
    4.8902  -11.2014   25.6691 C   0  0  0  0  0  0
    6.0263  -11.1709   26.6173 N   0  3  0  0  0  0
    5.7970  -11.9841   27.8274 C   0  0  0  0  0  0
    7.3136  -11.5172   25.9795 C   0  0  0  0  0  0
    2.4863  -10.3697   28.2400 C   0  0  0  0  0  0
    1.5081  -11.1128   28.8349 C   0  0  0  0  0  0
    1.0997  -12.0804   27.8771 C   0  0  0  0  0  0
    0.1228  -13.0913   27.8702 C   0  0  0  0  0  0
   -1.7291  -15.2951   27.8874 N   0  0  0  0  0  0
   -2.9552  -16.0832   27.9656 C   0  0  0  0  0  0
   -2.7471  -17.5894   27.9307 C   0  0  0  0  0  0
   -3.7376  -18.4928   27.4747 C   0  0  0  0  0  0
   -5.0171  -17.9838   26.8285 C   0  0  0  0  0  0
   -4.7570  -17.2228   25.7706 F   0  0  0  0  0  0
   -5.7518  -18.9950   26.4003 F   0  0  0  0  0  0
   -5.7290  -17.2806   27.6992 F   0  0  0  0  0  0
   -3.5194  -19.8860   27.6185 C   0  0  0  0  0  0
   -2.3069  -20.3683   28.1576 C   0  0  0  0  0  0
   -1.9221  -21.6994   28.3040 N   0  0  0  0  0  0
   -2.7812  -23.1718   28.2720 S   0  0  0  0  0  0
   -1.6824  -24.1586   27.1828 C   0  0  0  0  0  0
   -2.4080  -25.0244   26.1868 C   0  0  0  0  0  0
   -1.7820  -23.7291   25.7449 C   0  0  0  0  0  0
   -2.7004  -23.6829   29.6463 O   0  0  0  0  0  0
   -4.0696  -22.9109   27.6183 O   0  0  0  0  0  0
   -1.3301  -19.4591   28.5541 C   0  0  0  0  0  0
   -1.5445  -18.0894   28.4485 C   0  0  0  0  0  0
    0.6439  -14.3590   24.7469 H   0  0  0  0  0  0
    2.3286  -12.5795   24.7087 H   0  0  0  0  0  0
    4.1059   -9.3480   26.4796 H   0  0  0  0  0  0
    3.1809   -9.9817   25.1494 H   0  0  0  0  0  0
    5.2542  -10.8502   24.7038 H   0  0  0  0  0  0
    4.5687  -12.2293   25.4945 H   0  0  0  0  0  0
    5.5621  -13.0263   27.5913 H   0  0  0  0  0  0
    4.9639  -11.5821   28.4086 H   0  0  0  0  0  0
    6.6739  -11.9679   28.4795 H   0  0  0  0  0  0
    7.2963  -12.5516   25.6267 H   0  0  0  0  0  0
    7.5309  -10.8678   25.1275 H   0  0  0  0  0  0
    8.1420  -11.4191   26.6837 H   0  0  0  0  0  0
    3.0319   -9.5285   28.6398 H   0  0  0  0  0  0
    1.0931  -10.9860   29.8247 H   0  0  0  0  0  0
   -0.5102  -13.1899   28.7375 H   0  0  0  0  0  0
   -1.3656  -14.9342   28.7696 H   0  0  0  0  0  0
   -3.4398  -15.8366   28.9115 H   0  0  0  0  0  0
   -3.6402  -15.7454   27.1913 H   0  0  0  0  0  0
   -4.2757  -20.5753   27.2800 H   0  0  0  0  0  0
   -0.9652  -21.8168   28.5956 H   0  0  0  0  0  0
   -0.7300  -24.4418   27.6247 H   0  0  0  0  0  0
   -1.9181  -25.9491   25.8856 H   0  0  0  0  0  0
   -3.4943  -25.0706   26.2293 H   0  0  0  0  0  0
   -2.4530  -22.9065   25.5030 H   0  0  0  0  0  0
   -0.8868  -23.7973   25.1313 H   0  0  0  0  0  0
   -0.3955  -19.8103   28.9716 H   0  0  0  0  0  0
   -0.7770  -17.4261   28.8190 H   0  0  0  0  0  0
    6.1245  -10.2084   26.9025 H   0  0  0  0  0  0
  1  2  2  0  0  0
  2  3  1  0  0  0
  2 17  1  0  0  0
  3 16  1  0  0  0
  3  4  2  0  0  0
  4  5  1  0  0  0
  4 36  1  0  0  0
  5  6  2  0  0  0
  5 37  1  0  0  0
  6  7  1  0  0  0
  6 15  1  0  0  0
  7  8  1  0  0  0
  7 13  1  0  0  0
  8  9  1  0  0  0
  8 38  1  0  0  0
  8 39  1  0  0  0
  9 10  1  0  0  0
  9 40  1  0  0  0
  9 41  1  0  0  0
 10 11  1  0  0  0
 10 12  1  0  0  0
 10 63  1  0  0  0
 11 42  1  0  0  0
 11 43  1  0  0  0
 11 44  1  0  0  0
 12 45  1  0  0  0
 12 46  1  0  0  0
 12 47  1  0  0  0
 13 14  2  0  0  0
 13 48  1  0  0  0
 14 15  1  0  0  0
 14 49  1  0  0  0
 15 16  2  0  0  0
 16 50  1  0  0  0
 17 18  1  0  0  0
 17 51  1  0  0  0
 18 19  1  0  0  0
 18 52  1  0  0  0
 18 53  1  0  0  0
 19 35  1  0  0  0
 19 20  2  0  0  0
 20 21  1  0  0  0
 20 25  1  0  0  0
 21 22  1  0  0  0
 21 23  1  0  0  0
 21 24  1  0  0  0
 25 26  2  0  0  0
 25 54  1  0  0  0
 26 27  1  0  0  0
 26 34  1  0  0  0
 27 28  1  0  0  0
 27 55  1  0  0  0
 28 29  1  0  0  0
 28 32  2  0  0  0
 28 33  2  0  0  0
 29 31  1  0  0  0
 29 30  1  0  0  0
 29 56  1  0  0  0
 30 31  1  0  0  0
 30 57  1  0  0  0
 30 58  1  0  0  0
 31 59  1  0  0  0
 31 60  1  0  0  0
 34 35  2  0  0  0
 34 61  1  0  0  0
 35 62  1  0  0  0
M  CHG  1  10   1
M  END
> <s_m_entry_id>
72

> <s_m_entry_name>
sEH_lig_11k.1

> <s_m_Source_Path>
C:\Users\yujiethinkpad\Desktop\selection\selection\sEH_pose

> <s_m_Source_File>
sEH_lig_11k.sdf

> <i_m_Source_File_Index>
1

> <i_lp_mmshare_version>
51139

> <i_f3d_flags>
0

> <s_epik_input>
W0NIM11OKFtDSDNdKVtDSDJdW0NIMl1uMVtjSF1bY0hdYyhjMTIpW2NIXWMoW2NIXVtjSF0yKUMoPU8pW05IXVtDSDJdYzNjKEMoRikoRilGKVtjSF1jKFtjSF1bY0hdMylbTkhdUyg9TykoPU8pW0NIXTRbQ0gyXVtDSDJdNA==

> <s_epik_cmdline>
J2VwaWtfcHl0aG9uJywgJy1waHQnLCAnMi4wJywgJy1waCcsICc3LjAnLCAnLXRuJywgJzgnLCAnLW1hJywgJzIwMCcsICctaW1hZScsICc8aW5maWxlLm1hZT4nLCAnLW9tYWUnLCAnPG91dGZpbGUubWFlPic=

> <r_epik_Ionization_Penalty>
  0.1215

> <r_epik_Ionization_Penalty_Charging>
  0.0466

> <r_epik_Ionization_Penalty_Neutral>
  0.0750

> <r_epik_State_Penalty>
  0.1057

> <r_epik_Charging_Adjusted_Penalty>
0.152207

> <i_epik_Tot_Q>
1

> <i_epik_Tot_abs_Q>
1

> <s_lp_Force_Field>
OPLS3e

> <r_lp_Energy>
56.4116

> <b_lp_Chiralities_Consistent>
1

> <s_lp_Variant>
/home/yujie/leadopt/data/result/selection/sEH/lig_11k.sdf:1-1

> <s_i_glide_gridfile>
glide-grid_sEH

> <i_i_glide_lignum>
49

> <i_i_glide_rotatable_bonds>
11

> <r_i_docking_score>
-11.9755492305948

> <r_i_glide_ligand_efficiency>
-0.342158549445565

> <r_i_glide_ligand_efficiency_sa>
-1.11922330250797

> <r_i_glide_ligand_efficiency_ln>
-2.62889883911072

> <r_i_glide_gscore>
-12.0812492305948

> <r_i_glide_lipo>
-4.87240019419725

> <r_i_glide_hbond>
-0.72

> <r_i_glide_metal>
0

> <r_i_glide_rewards>
-2.47358769439602

> <r_i_glide_evdw>
-54.883186340332

> <r_i_glide_ecoul>
-11.873251914978

> <r_i_glide_erotb>
0.709885762261808

> <r_i_glide_esite>
-0.2

> <r_i_glide_emodel>
-107.540185070823

> <r_i_glide_energy>
-66.7564382553101

> <r_i_glide_einternal>
5.9172215461731

> <i_i_glide_confnum>
26

> <i_i_glide_posenum>
289

> <r_i_glide_eff_state_penalty>
0.1057

> <s_m_job_name>
glide-dock_SP_all

> <r_glide_shape_similarity>
0.876819431781769

> <s_m_subgroup_title>
glide-dock_SP_all_pv1

> <s_m_subgroupid>
glide-dock_SP_all_pv1

> <b_m_subgroup_collapsed>
0

$$$$
