/home/yujie/leadopt/data/result/selection/sEH/lig_10a.sdf:1
                    3D
 Schrodinger Suite 2021-2.
 43 45  0  0  1  0            999 V2000
   -1.5043  -15.4096   25.6405 O   0  0  0  0  0  0
   -1.1320  -14.9713   26.7221 C   0  0  0  0  0  0
   -0.0489  -13.9366   26.7532 C   0  0  0  0  0  0
    0.7704  -13.7452   25.6215 C   0  0  0  0  0  0
    1.7314  -12.7260   25.5899 C   0  0  0  0  0  0
    1.8776  -11.9031   26.7078 C   0  0  0  0  0  0
    2.7152  -10.8470   26.9717 N   0  0  0  0  0  0
    2.4883  -10.3665   28.2423 C   0  0  0  0  0  0
    1.5052  -11.1092   28.8344 C   0  0  0  0  0  0
    1.0893  -12.0795   27.8743 C   0  0  0  0  0  0
    0.1151  -13.0928   27.8646 C   0  0  0  0  0  0
   -1.6952  -15.3481   27.8785 N   0  0  0  0  0  0
   -2.9263  -16.1349   27.9607 C   0  0  0  0  0  0
   -2.7768  -17.6552   27.8802 C   0  0  0  0  0  0
   -3.8354  -18.4843   27.4379 C   0  0  0  0  0  0
   -5.0977  -17.9111   26.8104 C   0  0  0  0  0  0
   -5.9301  -18.8629   26.4104 F   0  0  0  0  0  0
   -5.7309  -17.1589   27.6973 F   0  0  0  0  0  0
   -4.8081  -17.1765   25.7413 F   0  0  0  0  0  0
   -3.7356  -19.8783   27.6186 C   0  0  0  0  0  0
   -2.6013  -20.4900   28.1792 C   0  0  0  0  0  0
   -2.6500  -21.8092   28.4436 N   0  5  0  0  0  0
   -1.4994  -22.9552   28.3401 S   0  0  0  0  0  0
   -1.6533  -23.4429   26.5828 C   0  0  0  0  0  0
   -0.1259  -22.4613   28.4991 O   0  0  0  0  0  0
   -1.8630  -24.1544   29.1071 O   0  0  0  0  0  0
   -1.5090  -19.6575   28.4861 C   0  0  0  0  0  0
   -1.5978  -18.2627   28.3452 C   0  0  0  0  0  0
    0.6588  -14.3714   24.7486 H   0  0  0  0  0  0
    2.3431  -12.5766   24.7127 H   0  0  0  0  0  0
    3.4257  -10.4825   26.3574 H   0  0  0  0  0  0
    3.0598   -9.5374   28.6340 H   0  0  0  0  0  0
    1.1012  -10.9861   29.8285 H   0  0  0  0  0  0
   -0.5189  -13.1977   28.7309 H   0  0  0  0  0  0
   -1.3441  -14.9637   28.7554 H   0  0  0  0  0  0
   -3.3837  -15.9068   28.9244 H   0  0  0  0  0  0
   -3.6255  -15.7581   27.2170 H   0  0  0  0  0  0
   -4.5700  -20.5081   27.3452 H   0  0  0  0  0  0
   -0.9425  -24.2402   26.3757 H   0  0  0  0  0  0
   -2.6685  -23.7908   26.3982 H   0  0  0  0  0  0
   -1.4377  -22.5754   25.9610 H   0  0  0  0  0  0
   -0.6057  -20.0706   28.9139 H   0  0  0  0  0  0
   -0.7647  -17.6595   28.6758 H   0  0  0  0  0  0
  1  2  2  0  0  0
  2  3  1  0  0  0
  2 12  1  0  0  0
  3 11  1  0  0  0
  3  4  2  0  0  0
  4  5  1  0  0  0
  4 29  1  0  0  0
  5  6  2  0  0  0
  5 30  1  0  0  0
  6  7  1  0  0  0
  6 10  1  0  0  0
  7  8  1  0  0  0
  7 31  1  0  0  0
  8  9  2  0  0  0
  8 32  1  0  0  0
  9 10  1  0  0  0
  9 33  1  0  0  0
 10 11  2  0  0  0
 11 34  1  0  0  0
 12 13  1  0  0  0
 12 35  1  0  0  0
 13 14  1  0  0  0
 13 36  1  0  0  0
 13 37  1  0  0  0
 14 28  1  0  0  0
 14 15  2  0  0  0
 15 16  1  0  0  0
 15 20  1  0  0  0
 16 17  1  0  0  0
 16 18  1  0  0  0
 16 19  1  0  0  0
 20 21  2  0  0  0
 20 38  1  0  0  0
 21 22  1  0  0  0
 21 27  1  0  0  0
 22 23  1  0  0  0
 23 24  1  0  0  0
 23 25  2  0  0  0
 23 26  2  0  0  0
 24 39  1  0  0  0
 24 40  1  0  0  0
 24 41  1  0  0  0
 27 28  2  0  0  0
 27 42  1  0  0  0
 28 43  1  0  0  0
M  CHG  1  22  -1
M  END
> <s_m_entry_id>
106

> <s_m_entry_name>
sEH_lig_10a.1

> <s_m_Source_Path>
C:\Users\yujiethinkpad\Desktop\selection\selection\sEH_pose

> <s_m_Source_File>
sEH_lig_10a.sdf

> <i_m_Source_File_Index>
1

> <i_lp_mmshare_version>
51139

> <i_f3d_flags>
0

> <s_epik_input>
W25IXTFbY0hdW2NIXWMoYzEyKVtjSF1jKFtjSF1bY0hdMilDKD1PKVtOSF1bQ0gyXWMzYyhDKEYpKEYpRilbY0hdYyhbY0hdW2NIXTMpW05IXVMoPU8pKD1PKVtDSDNd

> <s_epik_cmdline>
J2VwaWtfcHl0aG9uJywgJy1waHQnLCAnMi4wJywgJy1waCcsICc3LjAnLCAnLXRuJywgJzgnLCAnLW1hJywgJzIwMCcsICctaW1hZScsICc8aW5maWxlLm1hZT4nLCAnLW9tYWUnLCAnPG91dGZpbGUubWFlPic=

> <r_epik_Ionization_Penalty>
  1.1039

> <r_epik_Ionization_Penalty_Charging>
  1.1039

> <r_epik_Ionization_Penalty_Neutral>
  0.0000

> <r_epik_State_Penalty>
  1.1613

> <r_epik_Charging_Adjusted_Penalty>
2.26518

> <i_epik_Tot_Q>
-1

> <i_epik_Tot_abs_Q>
1

> <s_lp_Force_Field>
OPLS3e

> <r_lp_Energy>
26.8187

> <b_lp_Chiralities_Consistent>
1

> <s_lp_Variant>
/home/yujie/leadopt/data/result/selection/sEH/lig_10a.sdf:1-2

> <s_i_glide_gridfile>
glide-grid_sEH

> <i_i_glide_lignum>
35

> <i_i_glide_rotatable_bonds>
7

> <r_i_docking_score>
-10.426588880248

> <r_i_glide_ligand_efficiency>
-0.372378174294571

> <r_i_glide_ligand_efficiency_sa>
-1.13075945617411

> <r_i_glide_ligand_efficiency_ln>
-2.40676285151329

> <r_i_glide_gscore>
-11.587888880248

> <r_i_glide_lipo>
-3.87692796562236

> <r_i_glide_hbond>
-0.72

> <r_i_glide_metal>
0

> <r_i_glide_rewards>
-2.72605937082843

> <r_i_glide_evdw>
-48.5277214050293

> <r_i_glide_ecoul>
-14.0425672531128

> <r_i_glide_erotb>
0.467869614421178

> <r_i_glide_esite>
-0.2

> <r_i_glide_emodel>
-82.555894567755

> <r_i_glide_energy>
-62.5702886581421

> <r_i_glide_einternal>
4.52485132217407

> <i_i_glide_confnum>
14

> <i_i_glide_posenum>
47

> <r_i_glide_eff_state_penalty>
1.1613

> <s_m_job_name>
glide-dock_SP_all

> <r_glide_shape_similarity>
0.741837561130524

> <s_m_subgroup_title>
glide-dock_SP_all_pv1

> <s_m_subgroupid>
glide-dock_SP_all_pv1

> <b_m_subgroup_collapsed>
0

$$$$
