/home/yujie/leadopt/data/result/selection/sEH/lig_11l.sdf:1
                    3D
 Schrodinger Suite 2021-2.
 61 64  0  0  1  0            999 V2000
   -1.4965  -15.4109   25.6398 O   0  0  0  0  0  0
   -1.1422  -14.9514   26.7182 C   0  0  0  0  0  0
   -0.0528  -13.9259   26.7512 C   0  0  0  0  0  0
    0.7770  -13.7425   25.6270 C   0  0  0  0  0  0
    1.7604  -12.7455   25.6091 C   0  0  0  0  0  0
    1.9210  -11.9313   26.7362 C   0  0  0  0  0  0
    2.8514  -10.9573   27.0479 N   0  0  0  0  0  0
    4.0336  -10.6130   26.2824 C   0  0  0  0  0  0
    5.2456  -11.4786   26.7012 C   0  0  0  0  0  0
    6.4675  -11.1733   26.2207 N   0  0  0  0  0  0
    7.6509  -11.9273   26.6266 C   0  0  0  0  0  0
    6.7388  -10.1314   25.2473 C   0  0  0  0  0  0
    5.0898  -12.4399   27.4603 O   0  0  0  0  0  0
    2.5369  -10.4212   28.2820 C   0  0  0  0  0  0
    1.4877  -11.0957   28.8322 C   0  0  0  0  0  0
    1.0901  -12.0748   27.8778 C   0  0  0  0  0  0
    0.1076  -13.0812   27.8612 C   0  0  0  0  0  0
   -1.7352  -15.2916   27.8689 N   0  0  0  0  0  0
   -2.9571  -16.0879   27.9540 C   0  0  0  0  0  0
   -2.7361  -17.5925   27.9424 C   0  0  0  0  0  0
   -3.7114  -18.5135   27.4864 C   0  0  0  0  0  0
   -4.9967  -18.0243   26.8338 C   0  0  0  0  0  0
   -4.7400  -17.2709   25.7707 F   0  0  0  0  0  0
   -5.7338  -19.0417   26.4204 F   0  0  0  0  0  0
   -5.7113  -17.3185   27.6984 F   0  0  0  0  0  0
   -3.4638  -19.9038   27.6296 C   0  0  0  0  0  0
   -2.2482  -20.3623   28.1832 C   0  0  0  0  0  0
   -1.8538  -21.6907   28.3181 N   0  0  0  0  0  0
   -2.7245  -23.1487   28.2255 S   0  0  0  0  0  0
   -2.5898  -23.5444   26.4345 C   0  0  0  0  0  0
   -1.2398  -24.1074   26.0748 C   0  0  0  0  0  0
   -2.4407  -25.0132   26.1409 C   0  0  0  0  0  0
   -1.9314  -24.0941   29.0236 O   0  0  0  0  0  0
   -4.1083  -22.8150   28.5856 O   0  0  0  0  0  0
   -1.2961  -19.4369   28.6000 C   0  0  0  0  0  0
   -1.5348  -18.0724   28.4824 C   0  0  0  0  0  0
    0.6689  -14.3689   24.7556 H   0  0  0  0  0  0
    2.4022  -12.6301   24.7481 H   0  0  0  0  0  0
    4.2557   -9.5569   26.4492 H   0  0  0  0  0  0
    3.8201  -10.7396   25.2198 H   0  0  0  0  0  0
    7.7342  -12.8370   26.0304 H   0  0  0  0  0  0
    7.6118  -12.2178   27.6818 H   0  0  0  0  0  0
    8.5687  -11.3472   26.4980 H   0  0  0  0  0  0
    7.2057   -9.2938   25.7599 H   0  0  0  0  0  0
    7.4406  -10.4886   24.4942 H   0  0  0  0  0  0
    5.8684   -9.7687   24.7034 H   0  0  0  0  0  0
    3.1406   -9.6328   28.7045 H   0  0  0  0  0  0
    1.0426  -10.9304   29.8003 H   0  0  0  0  0  0
   -0.5388  -13.1772   28.7197 H   0  0  0  0  0  0
   -1.3717  -14.9346   28.7520 H   0  0  0  0  0  0
   -3.4421  -15.8341   28.8976 H   0  0  0  0  0  0
   -3.6440  -15.7638   27.1743 H   0  0  0  0  0  0
   -4.1908  -20.6215   27.2808 H   0  0  0  0  0  0
   -0.8973  -21.8215   28.6117 H   0  0  0  0  0  0
   -3.1204  -22.8674   25.7666 H   0  0  0  0  0  0
   -0.8495  -23.8772   25.0874 H   0  0  0  0  0  0
   -0.4901  -24.2248   26.8559 H   0  0  0  0  0  0
   -2.5073  -25.7113   26.9736 H   0  0  0  0  0  0
   -2.8368  -25.3824   25.1964 H   0  0  0  0  0  0
   -0.3626  -19.7664   29.0381 H   0  0  0  0  0  0
   -0.7823  -17.3961   28.8607 H   0  0  0  0  0  0
  1  2  2  0  0  0
  2  3  1  0  0  0
  2 18  1  0  0  0
  3 17  1  0  0  0
  3  4  2  0  0  0
  4  5  1  0  0  0
  4 37  1  0  0  0
  5  6  2  0  0  0
  5 38  1  0  0  0
  6  7  1  0  0  0
  6 16  1  0  0  0
  7  8  1  0  0  0
  7 14  1  0  0  0
  8  9  1  0  0  0
  8 39  1  0  0  0
  8 40  1  0  0  0
  9 10  1  0  0  0
  9 13  2  0  0  0
 10 11  1  0  0  0
 10 12  1  0  0  0
 11 41  1  0  0  0
 11 42  1  0  0  0
 11 43  1  0  0  0
 12 44  1  0  0  0
 12 45  1  0  0  0
 12 46  1  0  0  0
 14 15  2  0  0  0
 14 47  1  0  0  0
 15 16  1  0  0  0
 15 48  1  0  0  0
 16 17  2  0  0  0
 17 49  1  0  0  0
 18 19  1  0  0  0
 18 50  1  0  0  0
 19 20  1  0  0  0
 19 51  1  0  0  0
 19 52  1  0  0  0
 20 36  1  0  0  0
 20 21  2  0  0  0
 21 22  1  0  0  0
 21 26  1  0  0  0
 22 23  1  0  0  0
 22 24  1  0  0  0
 22 25  1  0  0  0
 26 27  2  0  0  0
 26 53  1  0  0  0
 27 28  1  0  0  0
 27 35  1  0  0  0
 28 29  1  0  0  0
 28 54  1  0  0  0
 29 30  1  0  0  0
 29 33  2  0  0  0
 29 34  2  0  0  0
 30 32  1  0  0  0
 30 31  1  0  0  0
 30 55  1  0  0  0
 31 32  1  0  0  0
 31 56  1  0  0  0
 31 57  1  0  0  0
 32 58  1  0  0  0
 32 59  1  0  0  0
 35 36  2  0  0  0
 35 60  1  0  0  0
 36 61  1  0  0  0
M  END
> <s_m_entry_id>
68

> <s_m_entry_name>
sEH_lig_11l.1

> <s_m_Source_Path>
C:\Users\yujiethinkpad\Desktop\selection\selection\sEH_pose

> <s_m_Source_File>
sEH_lig_11l.sdf

> <i_m_Source_File_Index>
1

> <i_lp_mmshare_version>
51139

> <i_f3d_flags>
0

> <s_epik_input>
W0NIM11OKFtDSDNdKUMoPU8pW0NIMl1uMVtjSF1bY0hdYyhjMTIpW2NIXWMoW2NIXVtjSF0yKUMoPU8pW05IXVtDSDJdYzNjKEMoRikoRilGKVtjSF1jKFtjSF1bY0hdMylbTkhdUyg9TykoPU8pW0NIXTRbQ0gyXVtDSDJdNA==

> <s_epik_cmdline>
J2VwaWtfcHl0aG9uJywgJy1waHQnLCAnMi4wJywgJy1waCcsICc3LjAnLCAnLXRuJywgJzgnLCAnLW1hJywgJzIwMCcsICctaW1hZScsICc8aW5maWxlLm1hZT4nLCAnLW9tYWUnLCAnPG91dGZpbGUubWFlPic=

> <r_epik_Ionization_Penalty>
  0.0750

> <r_epik_Ionization_Penalty_Charging>
  0.0000

> <r_epik_Ionization_Penalty_Neutral>
  0.0750

> <r_epik_State_Penalty>
  0.0661

> <r_epik_Charging_Adjusted_Penalty>
0.0660634

> <i_epik_Tot_Q>
0

> <i_epik_Tot_abs_Q>
0

> <s_lp_Force_Field>
OPLS3e

> <r_lp_Energy>
41.6351

> <b_lp_Chiralities_Consistent>
1

> <s_lp_Variant>
/home/yujie/leadopt/data/result/selection/sEH/lig_11l.sdf:1-1

> <s_i_glide_gridfile>
glide-grid_sEH

> <i_i_glide_lignum>
50

> <i_i_glide_rotatable_bonds>
11

> <r_i_docking_score>
-12.1914978489574

> <r_i_glide_ligand_efficiency>
-0.338652718026595

> <r_i_glide_ligand_efficiency_sa>
-1.11820663622854

> <r_i_glide_ligand_efficiency_ln>
-2.65985545443474

> <r_i_glide_gscore>
-12.2575978489574

> <r_i_glide_lipo>
-4.66469002642659

> <r_i_glide_hbond>
-0.72

> <r_i_glide_metal>
0

> <r_i_glide_rewards>
-2.65423196208519

> <r_i_glide_evdw>
-57.1025085449219

> <r_i_glide_ecoul>
-12.2758655548096

> <r_i_glide_erotb>
0.677829400021895

> <r_i_glide_esite>
-0.2

> <r_i_glide_emodel>
-114.017064457867

> <r_i_glide_energy>
-69.3783740997314

> <r_i_glide_einternal>
3.75232267379761

> <i_i_glide_confnum>
266

> <i_i_glide_posenum>
6

> <r_i_glide_eff_state_penalty>
0.0661

> <s_m_job_name>
glide-dock_SP_all

> <r_glide_shape_similarity>
0.886848211288452

> <s_m_subgroup_title>
glide-dock_SP_all_pv1

> <s_m_subgroupid>
glide-dock_SP_all_pv1

> <b_m_subgroup_collapsed>
0

$$$$
