/home/yujie/leadopt/data/result/selection/sEH/lig_7f.sdf:1
                    3D
 Schrodinger Suite 2021-2.
 52 55  0  0  1  0            999 V2000
   -1.5198  -15.3770   25.6506 O   0  0  0  0  0  0
   -1.1382  -14.9580   26.7367 C   0  0  0  0  0  0
   -0.0447  -13.9362   26.7689 C   0  0  0  0  0  0
    0.7686  -13.7515   25.6310 C   0  0  0  0  0  0
    1.7271  -12.7327   25.5882 C   0  0  0  0  0  0
    1.8737  -11.9019   26.7001 C   0  0  0  0  0  0
    2.6810  -10.8165   26.9634 N   0  0  0  0  0  0
    3.6558  -10.2038   26.0758 C   0  0  0  0  0  0
    5.0707  -10.7527   26.2032 C   0  0  0  0  0  0
    5.4069  -11.7288   27.1593 C   0  0  0  0  0  0
    6.7280  -12.1681   27.2911 C   0  0  0  0  0  0
    7.0387  -13.0412   28.2754 F   0  0  0  0  0  0
    7.7238  -11.6662   26.4432 C   0  0  0  0  0  0
    7.4000  -10.6984   25.4812 C   0  0  0  0  0  0
    6.0781  -10.2410   25.3664 C   0  0  0  0  0  0
    2.4957  -10.3199   28.2130 N   0  0  0  0  0  0
    1.5655  -11.0630   28.7627 C   0  0  0  0  0  0
    1.1006  -12.0719   27.8714 C   0  0  0  0  0  0
    0.1280  -13.0895   27.8790 C   0  0  0  0  0  0
   -1.6999  -15.3451   27.8910 N   0  0  0  0  0  0
   -2.9327  -16.1324   27.9668 C   0  0  0  0  0  0
   -2.7800  -17.6526   27.8833 C   0  0  0  0  0  0
   -3.8348  -18.4896   27.4394 C   0  0  0  0  0  0
   -5.0964  -17.9134   26.8120 C   0  0  0  0  0  0
   -4.8049  -17.1776   25.7445 F   0  0  0  0  0  0
   -5.9276  -18.8651   26.4116 F   0  0  0  0  0  0
   -5.7292  -17.1616   27.6990 F   0  0  0  0  0  0
   -3.7222  -19.8896   27.6017 C   0  0  0  0  0  0
   -2.5571  -20.4699   28.1485 C   0  0  0  0  0  0
   -2.3619  -21.8137   28.3652 O   0  0  0  0  0  0
   -3.2239  -22.7226   27.7095 C   0  0  0  0  0  0
   -1.4938  -19.6337   28.4935 C   0  0  0  0  0  0
   -1.5979  -18.2452   28.3569 C   0  0  0  0  0  0
    0.6506  -14.3800   24.7603 H   0  0  0  0  0  0
    2.3295  -12.5835   24.7044 H   0  0  0  0  0  0
    3.3155  -10.3295   25.0471 H   0  0  0  0  0  0
    3.6699   -9.1301   26.2658 H   0  0  0  0  0  0
    4.6684  -12.1326   27.8351 H   0  0  0  0  0  0
    8.7409  -12.0103   26.5470 H   0  0  0  0  0  0
    8.1690  -10.2990   24.8376 H   0  0  0  0  0  0
    5.8367   -9.4875   24.6297 H   0  0  0  0  0  0
    1.2372  -10.8500   29.7692 H   0  0  0  0  0  0
   -0.5034  -13.1879   28.7484 H   0  0  0  0  0  0
   -1.3475  -14.9647   28.7694 H   0  0  0  0  0  0
   -3.6303  -15.7546   27.2221 H   0  0  0  0  0  0
   -3.3928  -15.9059   28.9296 H   0  0  0  0  0  0
   -4.5434  -20.5219   27.3028 H   0  0  0  0  0  0
   -2.8603  -23.7393   27.8617 H   0  0  0  0  0  0
   -3.2553  -22.5388   26.6339 H   0  0  0  0  0  0
   -4.2368  -22.6701   28.1121 H   0  0  0  0  0  0
   -0.5869  -20.0607   28.8989 H   0  0  0  0  0  0
   -0.7743  -17.6321   28.6940 H   0  0  0  0  0  0
  1  2  2  0  0  0
  2  3  1  0  0  0
  2 20  1  0  0  0
  3 19  1  0  0  0
  3  4  2  0  0  0
  4  5  1  0  0  0
  4 34  1  0  0  0
  5  6  2  0  0  0
  5 35  1  0  0  0
  6  7  1  0  0  0
  6 18  1  0  0  0
  7  8  1  0  0  0
  7 16  1  0  0  0
  8  9  1  0  0  0
  8 36  1  0  0  0
  8 37  1  0  0  0
  9 15  1  0  0  0
  9 10  2  0  0  0
 10 11  1  0  0  0
 10 38  1  0  0  0
 11 12  1  0  0  0
 11 13  2  0  0  0
 13 14  1  0  0  0
 13 39  1  0  0  0
 14 15  2  0  0  0
 14 40  1  0  0  0
 15 41  1  0  0  0
 16 17  2  0  0  0
 17 18  1  0  0  0
 17 42  1  0  0  0
 18 19  2  0  0  0
 19 43  1  0  0  0
 20 21  1  0  0  0
 20 44  1  0  0  0
 21 22  1  0  0  0
 21 45  1  0  0  0
 21 46  1  0  0  0
 22 33  1  0  0  0
 22 23  2  0  0  0
 23 24  1  0  0  0
 23 28  1  0  0  0
 24 25  1  0  0  0
 24 26  1  0  0  0
 24 27  1  0  0  0
 28 29  2  0  0  0
 28 47  1  0  0  0
 29 30  1  0  0  0
 29 32  1  0  0  0
 30 31  1  0  0  0
 31 48  1  0  0  0
 31 49  1  0  0  0
 31 50  1  0  0  0
 32 33  2  0  0  0
 32 51  1  0  0  0
 33 52  1  0  0  0
M  END
> <s_m_entry_id>
76

> <s_m_entry_name>
sEH_lig_7f.1

> <s_m_Source_Path>
C:\Users\yujiethinkpad\Desktop\selection\selection\sEH_pose

> <s_m_Source_File>
sEH_lig_7f.sdf

> <i_m_Source_File_Index>
1

> <i_lp_mmshare_version>
51139

> <i_f3d_flags>
0

> <s_epik_input>
W0NIM11PYyhbY0hdW2NIXTEpW2NIXWMoQyhGKShGKUYpYzFbQ0gyXVtOSF1DKD1PKWMoW2NIXVtjSF0yKVtjSF1jKGMyMylbY0hdbm4zW0NIMl1jNFtjSF1jKEYpW2NIXVtjSF1bY0hdNA==

> <s_epik_cmdline>
J2VwaWtfcHl0aG9uJywgJy1waHQnLCAnMi4wJywgJy1waCcsICc3LjAnLCAnLXRuJywgJzgnLCAnLW1hJywgJzIwMCcsICctaW1hZScsICc8aW5maWxlLm1hZT4nLCAnLW9tYWUnLCAnPG91dGZpbGUubWFlPic=

> <r_epik_Ionization_Penalty>
  0.0000

> <r_epik_Ionization_Penalty_Charging>
  0.0000

> <r_epik_Ionization_Penalty_Neutral>
  0.0000

> <r_epik_State_Penalty>
  0.0000

> <r_epik_Charging_Adjusted_Penalty>
0

> <i_epik_Tot_Q>
0

> <i_epik_Tot_abs_Q>
0

> <s_lp_Force_Field>
OPLS3e

> <r_lp_Energy>
41.5091

> <b_lp_Chiralities_Consistent>
1

> <s_lp_Variant>
/home/yujie/leadopt/data/result/selection/sEH/lig_7f.sdf:1-1

> <s_i_glide_gridfile>
glide-grid_sEH

> <i_i_glide_lignum>
23

> <i_i_glide_rotatable_bonds>
8

> <r_i_docking_score>
-11.7990859083529

> <r_i_glide_ligand_efficiency>
-0.357548057828876

> <r_i_glide_ligand_efficiency_sa>
-1.1468476687728

> <r_i_glide_ligand_efficiency_ln>
-2.62405561362045

> <r_i_glide_gscore>
-11.7990859083529

> <r_i_glide_lipo>
-4.58489585731421

> <r_i_glide_hbond>
-0.72

> <r_i_glide_metal>
0

> <r_i_glide_rewards>
-2.55001694755817

> <r_i_glide_evdw>
-50.1308441162109

> <r_i_glide_ecoul>
-12.0943832397461

> <r_i_glide_erotb>
0.57652658829194

> <r_i_glide_esite>
-0.2

> <r_i_glide_emodel>
-95.2578026786706

> <r_i_glide_energy>
-62.225227355957

> <r_i_glide_einternal>
4.09894704818726

> <i_i_glide_confnum>
80

> <i_i_glide_posenum>
270

> <r_i_glide_eff_state_penalty>
0

> <r_lp_tautomer_probability>
1

> <s_m_job_name>
glide-dock_SP_all

> <r_glide_shape_similarity>
0.870583653450012

> <s_m_subgroup_title>
glide-dock_SP_all_pv1

> <s_m_subgroupid>
glide-dock_SP_all_pv1

> <b_m_subgroup_collapsed>
0

$$$$
