/home/yujie/leadopt/data/result/selection/sEH/lig_10c.sdf:1
                    3D
 Schrodinger Suite 2021-2.
 56 59  0  0  1  0            999 V2000
   -1.5000  -15.4226   25.6431 O   0  0  0  0  0  0
   -1.1337  -14.9747   26.7226 C   0  0  0  0  0  0
   -0.0510  -13.9411   26.7556 C   0  0  0  0  0  0
    0.7662  -13.7523   25.6235 C   0  0  0  0  0  0
    1.7210  -12.7306   25.5903 C   0  0  0  0  0  0
    1.8656  -11.8999   26.7052 C   0  0  0  0  0  0
    2.6896  -10.8248   26.9423 N   0  0  0  0  0  0
    3.6832  -10.2496   26.1047 C   0  0  0  0  0  0
    5.0841  -10.7528   26.2043 C   0  0  0  0  0  0
    5.4160  -11.7359   27.1511 C   0  0  0  0  0  0
    6.7324  -12.1800   27.2706 C   0  0  0  0  0  0
    7.0336  -13.0994   28.2063 F   0  0  0  0  0  0
    7.7300  -11.6672   26.4351 C   0  0  0  0  0  0
    7.4084  -10.6924   25.4814 C   0  0  0  0  0  0
    6.0878  -10.2358   25.3651 C   0  0  0  0  0  0
    3.3412   -9.3894   25.2990 O   0  0  0  0  0  0
    2.4789  -10.3679   28.2327 C   0  0  0  0  0  0
    1.5059  -11.1158   28.8343 C   0  0  0  0  0  0
    1.0863  -12.0819   27.8748 C   0  0  0  0  0  0
    0.1146  -13.0966   27.8668 C   0  0  0  0  0  0
   -1.7011  -15.3457   27.8772 N   0  0  0  0  0  0
   -2.9307  -16.1328   27.9613 C   0  0  0  0  0  0
   -2.7777  -17.6525   27.8786 C   0  0  0  0  0  0
   -3.8371  -18.4828   27.4362 C   0  0  0  0  0  0
   -5.0989  -17.9102   26.8096 C   0  0  0  0  0  0
   -5.7317  -17.1597   27.6976 F   0  0  0  0  0  0
   -4.8084  -17.1763   25.7409 F   0  0  0  0  0  0
   -5.9278  -18.8651   26.4113 F   0  0  0  0  0  0
   -3.7403  -19.8761   27.6203 C   0  0  0  0  0  0
   -2.6032  -20.4581   28.1930 C   0  0  0  0  0  0
   -2.6399  -21.8131   28.5235 N   0  0  0  0  0  0
   -1.4391  -23.0382   28.3155 S   0  0  0  0  0  0
   -1.6328  -23.4678   26.5456 C   0  0  0  0  0  0
   -1.8792  -24.1691   29.1402 O   0  0  0  0  0  0
   -0.1267  -22.4218   28.5364 O   0  0  0  0  0  0
   -1.5035  -19.6453   28.4949 C   0  0  0  0  0  0
   -1.5958  -18.2548   28.3446 C   0  0  0  0  0  0
    0.6546  -14.3783   24.7504 H   0  0  0  0  0  0
    2.3241  -12.5774   24.7076 H   0  0  0  0  0  0
    4.6762  -12.1583   27.8144 H   0  0  0  0  0  0
    8.7449  -12.0212   26.5295 H   0  0  0  0  0  0
    8.1771  -10.2933   24.8365 H   0  0  0  0  0  0
    5.8518   -9.4819   24.6267 H   0  0  0  0  0  0
    3.0473   -9.5377   28.6287 H   0  0  0  0  0  0
    1.1140  -10.9993   29.8340 H   0  0  0  0  0  0
   -0.5167  -13.2027   28.7350 H   0  0  0  0  0  0
   -1.3516  -14.9565   28.7530 H   0  0  0  0  0  0
   -3.6309  -15.7554   27.2186 H   0  0  0  0  0  0
   -3.3871  -15.9052   28.9257 H   0  0  0  0  0  0
   -4.5712  -20.5132   27.3553 H   0  0  0  0  0  0
   -3.5727  -22.1847   28.5962 H   0  0  0  0  0  0
   -0.9254  -24.2568   26.2923 H   0  0  0  0  0  0
   -1.4302  -22.5874   25.9377 H   0  0  0  0  0  0
   -2.6472  -23.8192   26.3623 H   0  0  0  0  0  0
   -0.6082  -20.0592   28.9361 H   0  0  0  0  0  0
   -0.7656  -17.6472   28.6754 H   0  0  0  0  0  0
  1  2  2  0  0  0
  2  3  1  0  0  0
  2 21  1  0  0  0
  3 20  1  0  0  0
  3  4  2  0  0  0
  4  5  1  0  0  0
  4 38  1  0  0  0
  5  6  2  0  0  0
  5 39  1  0  0  0
  6  7  1  0  0  0
  6 19  1  0  0  0
  7  8  1  0  0  0
  7 17  1  0  0  0
  8  9  1  0  0  0
  8 16  2  0  0  0
  9 15  1  0  0  0
  9 10  2  0  0  0
 10 11  1  0  0  0
 10 40  1  0  0  0
 11 12  1  0  0  0
 11 13  2  0  0  0
 13 14  1  0  0  0
 13 41  1  0  0  0
 14 15  2  0  0  0
 14 42  1  0  0  0
 15 43  1  0  0  0
 17 18  2  0  0  0
 17 44  1  0  0  0
 18 19  1  0  0  0
 18 45  1  0  0  0
 19 20  2  0  0  0
 20 46  1  0  0  0
 21 22  1  0  0  0
 21 47  1  0  0  0
 22 23  1  0  0  0
 22 48  1  0  0  0
 22 49  1  0  0  0
 23 37  1  0  0  0
 23 24  2  0  0  0
 24 25  1  0  0  0
 24 29  1  0  0  0
 25 26  1  0  0  0
 25 27  1  0  0  0
 25 28  1  0  0  0
 29 30  2  0  0  0
 29 50  1  0  0  0
 30 31  1  0  0  0
 30 36  1  0  0  0
 31 32  1  0  0  0
 31 51  1  0  0  0
 32 33  1  0  0  0
 32 34  2  0  0  0
 32 35  2  0  0  0
 33 52  1  0  0  0
 33 53  1  0  0  0
 33 54  1  0  0  0
 36 37  2  0  0  0
 36 55  1  0  0  0
 37 56  1  0  0  0
M  END
> <s_m_entry_id>
62

> <s_m_entry_name>
sEH_lig_10c.1

> <s_m_Source_Path>
C:\Users\yujiethinkpad\Desktop\selection\selection\sEH_pose

> <s_m_Source_File>
sEH_lig_10c.sdf

> <i_m_Source_File_Index>
1

> <i_lp_mmshare_version>
51139

> <i_f3d_flags>
0

> <s_epik_input>
W0NIM11TKD1PKSg9TylbTkhdYyhbY0hdW2NIXTEpW2NIXWMoQyhGKShGKUYpYzFbQ0gyXVtOSF1DKD1PKWMoW2NIXVtjSF0yKVtjSF1jKGMyMylbY0hdW2NIXW4zQyg9TyljNFtjSF1jKEYpW2NIXVtjSF1bY0hdNA==

> <s_epik_cmdline>
J2VwaWtfcHl0aG9uJywgJy1waHQnLCAnMi4wJywgJy1waCcsICc3LjAnLCAnLXRuJywgJzgnLCAnLW1hJywgJzIwMCcsICctaW1hZScsICc8aW5maWxlLm1hZT4nLCAnLW9tYWUnLCAnPG91dGZpbGUubWFlPic=

> <r_epik_Ionization_Penalty>
  0.0999

> <r_epik_Ionization_Penalty_Charging>
  0.0000

> <r_epik_Ionization_Penalty_Neutral>
  0.0999

> <r_epik_State_Penalty>
  0.0900

> <r_epik_Charging_Adjusted_Penalty>
0.0899504

> <i_epik_Tot_Q>
0

> <i_epik_Tot_abs_Q>
0

> <s_lp_Force_Field>
OPLS3e

> <r_lp_Energy>
42.9159

> <b_lp_Chiralities_Consistent>
1

> <s_lp_Variant>
/home/yujie/leadopt/data/result/selection/sEH/lig_10c.sdf:1-1

> <s_i_glide_gridfile>
glide-grid_sEH

> <i_i_glide_lignum>
37

> <i_i_glide_rotatable_bonds>
9

> <r_i_docking_score>
-12.7384883811718

> <r_i_glide_ligand_efficiency>
-0.344283469761399

> <r_i_glide_ligand_efficiency_sa>
-1.14722889971857

> <r_i_glide_ligand_efficiency_ln>
-2.76267949733823

> <r_i_glide_gscore>
-12.8284883811718

> <r_i_glide_lipo>
-4.72121225312734

> <r_i_glide_hbond>
-0.72

> <r_i_glide_metal>
0

> <r_i_glide_rewards>
-2.69489396035038

> <r_i_glide_evdw>
-60.376522064209

> <r_i_glide_ecoul>
-13.2066783905029

> <r_i_glide_erotb>
0.507445694091831

> <r_i_glide_esite>
-0.2

> <r_i_glide_emodel>
-122.180057720659

> <r_i_glide_energy>
-73.5832004547119

> <r_i_glide_einternal>
11.8573055267334

> <i_i_glide_confnum>
18

> <i_i_glide_posenum>
105

> <r_i_glide_eff_state_penalty>
0.09

> <s_m_job_name>
glide-dock_SP_all

> <r_glide_shape_similarity>
0.961292326450348

> <s_m_subgroup_title>
glide-dock_SP_all_pv1

> <s_m_subgroupid>
glide-dock_SP_all_pv1

> <b_m_subgroup_collapsed>
0

$$$$
