/home/yujie/leadopt/data/result/selection/sEH/lig_6i.sdf:1
                    3D
 Schrodinger Suite 2021-2.
 49 52  0  0  1  0            999 V2000
   -1.5043  -15.4281   25.6412 O   0  0  0  0  0  0
   -1.1380  -14.9818   26.7212 C   0  0  0  0  0  0
   -0.0598  -13.9467   26.7564 C   0  0  0  0  0  0
    0.7631  -13.7425   25.6162 C   0  0  0  0  0  0
    1.7268  -12.7148   25.5714 C   0  0  0  0  0  0
    1.8390  -11.9116   26.7066 C   0  0  0  0  0  0
    2.6886  -10.8538   27.0118 N   0  0  0  0  0  0
    3.6562  -10.2692   26.0882 C   0  0  0  0  0  0
    5.0795  -10.7822   26.2150 C   0  0  0  0  0  0
    6.0748  -10.2452   25.3826 C   0  0  0  0  0  0
    7.4002  -10.6910   25.4908 C   0  0  0  0  0  0
    8.6133  -10.0361   24.4638 Cl  0  0  0  0  0  0
    7.7388  -11.6674   26.4365 C   0  0  0  0  0  0
    6.7548  -12.2056   27.2715 C   0  0  0  0  0  0
    5.4301  -11.7752   27.1499 C   0  0  0  0  0  0
    2.5745  -10.6248   28.3361 C   0  0  0  0  0  0
    1.4882  -11.2526   28.7871 N   0  0  0  0  0  0
    3.4221  -10.1329   29.0600 O   0  0  0  0  0  0
    1.0696  -12.1323   27.8193 C   0  0  0  0  0  0
    0.0954  -13.1196   27.8847 C   0  0  0  0  0  0
   -1.7039  -15.3513   27.8778 N   0  0  0  0  0  0
   -2.9340  -16.1359   27.9646 C   0  0  0  0  0  0
   -2.7815  -17.6562   27.8835 C   0  0  0  0  0  0
   -3.8399  -18.4879   27.4396 C   0  0  0  0  0  0
   -5.0999  -17.9118   26.8109 C   0  0  0  0  0  0
   -4.8073  -17.1769   25.7428 F   0  0  0  0  0  0
   -5.9311  -18.8648   26.4112 F   0  0  0  0  0  0
   -5.7307  -17.1605   27.6993 F   0  0  0  0  0  0
   -3.7354  -19.8853   27.6037 C   0  0  0  0  0  0
   -2.5809  -20.4683   28.1409 C   0  0  0  0  0  0
   -1.5000  -19.6497   28.4851 C   0  0  0  0  0  0
   -1.5992  -18.2568   28.3512 C   0  0  0  0  0  0
    0.6511  -14.3692   24.7440 H   0  0  0  0  0  0
    2.3442  -12.5614   24.6985 H   0  0  0  0  0  0
    3.3194  -10.4148   25.0611 H   0  0  0  0  0  0
    3.6639   -9.1905   26.2470 H   0  0  0  0  0  0
    5.8236   -9.4879   24.6557 H   0  0  0  0  0  0
    8.7589  -12.0101   26.5155 H   0  0  0  0  0  0
    7.0092  -12.9597   28.0001 H   0  0  0  0  0  0
    4.7005  -12.2308   27.8006 H   0  0  0  0  0  0
    1.1999  -11.3101   29.7495 H   0  0  0  0  0  0
   -0.5149  -13.2232   28.7665 H   0  0  0  0  0  0
   -1.3566  -14.9567   28.7526 H   0  0  0  0  0  0
   -3.6346  -15.7586   27.2220 H   0  0  0  0  0  0
   -3.3879  -15.9047   28.9297 H   0  0  0  0  0  0
   -4.5451  -20.5362   27.3091 H   0  0  0  0  0  0
   -2.5123  -21.5407   28.2537 H   0  0  0  0  0  0
   -0.5941  -20.0868   28.8839 H   0  0  0  0  0  0
   -0.7710  -17.6475   28.6830 H   0  0  0  0  0  0
  1  2  2  0  0  0
  2  3  1  0  0  0
  2 21  1  0  0  0
  3 20  1  0  0  0
  3  4  2  0  0  0
  4  5  1  0  0  0
  4 33  1  0  0  0
  5  6  2  0  0  0
  5 34  1  0  0  0
  6  7  1  0  0  0
  6 19  1  0  0  0
  7  8  1  0  0  0
  7 16  1  0  0  0
  8  9  1  0  0  0
  8 35  1  0  0  0
  8 36  1  0  0  0
  9 15  1  0  0  0
  9 10  2  0  0  0
 10 11  1  0  0  0
 10 37  1  0  0  0
 11 12  1  0  0  0
 11 13  2  0  0  0
 13 14  1  0  0  0
 13 38  1  0  0  0
 14 15  2  0  0  0
 14 39  1  0  0  0
 15 40  1  0  0  0
 16 17  1  0  0  0
 16 18  2  0  0  0
 17 19  1  0  0  0
 17 41  1  0  0  0
 19 20  2  0  0  0
 20 42  1  0  0  0
 21 22  1  0  0  0
 21 43  1  0  0  0
 22 23  1  0  0  0
 22 44  1  0  0  0
 22 45  1  0  0  0
 23 32  1  0  0  0
 23 24  2  0  0  0
 24 25  1  0  0  0
 24 29  1  0  0  0
 25 26  1  0  0  0
 25 27  1  0  0  0
 25 28  1  0  0  0
 29 30  2  0  0  0
 29 46  1  0  0  0
 30 31  1  0  0  0
 30 47  1  0  0  0
 31 32  2  0  0  0
 31 48  1  0  0  0
 32 49  1  0  0  0
M  END
> <s_m_entry_id>
92

> <s_m_entry_name>
sEH_lig_6i.1

> <s_m_Source_Path>
C:\Users\yujiethinkpad\Desktop\selection\selection\sEH_pose

> <s_m_Source_File>
sEH_lig_6i.sdf

> <i_m_Source_File_Index>
1

> <i_lp_mmshare_version>
51139

> <i_f3d_flags>
0

> <s_epik_input>
W2NIXTFbY0hdW2NIXVtjSF1jKEMoRikoRilGKWMxW0NIMl1bTkhdQyg9TyljKFtjSF1bY0hdMilbY0hdYyhjMjMpW25IXWMoPU8pbjNbQ0gyXWM0W2NIXWMoQ2wpW2NIXVtjSF1bY0hdNA==

> <s_epik_cmdline>
J2VwaWtfcHl0aG9uJywgJy1waHQnLCAnMi4wJywgJy1waCcsICc3LjAnLCAnLXRuJywgJzgnLCAnLW1hJywgJzIwMCcsICctaW1hZScsICc8aW5maWxlLm1hZT4nLCAnLW9tYWUnLCAnPG91dGZpbGUubWFlPic=

> <r_epik_Ionization_Penalty>
  0.0000

> <r_epik_Ionization_Penalty_Charging>
  0.0000

> <r_epik_Ionization_Penalty_Neutral>
  0.0000

> <r_epik_State_Penalty>
  0.0000

> <r_epik_Charging_Adjusted_Penalty>
2.36287e-05

> <i_epik_Tot_Q>
0

> <i_epik_Tot_abs_Q>
0

> <s_lp_Force_Field>
OPLS3e

> <r_lp_Energy>
34.5789

> <b_lp_Chiralities_Consistent>
1

> <s_lp_Variant>
/home/yujie/leadopt/data/result/selection/sEH/lig_6i.sdf:1-1

> <s_i_glide_gridfile>
glide-grid_sEH

> <i_i_glide_lignum>
12

> <i_i_glide_rotatable_bonds>
7

> <r_i_docking_score>
-11.3557448172101

> <r_i_glide_ligand_efficiency>
-0.354867025537816

> <r_i_glide_ligand_efficiency_sa>
-1.12663257799357

> <r_i_glide_ligand_efficiency_ln>
-2.54286081048608

> <r_i_glide_gscore>
-11.3557448172101

> <r_i_glide_lipo>
-4.1267477572435

> <r_i_glide_hbond>
-0.72

> <r_i_glide_metal>
0

> <r_i_glide_rewards>
-2.85627058957533

> <r_i_glide_evdw>
-48.1908531188965

> <r_i_glide_ecoul>
-10.7611989974976

> <r_i_glide_erotb>
0.570996035178175

> <r_i_glide_esite>
-0.2

> <r_i_glide_emodel>
-83.7544083999046

> <r_i_glide_energy>
-58.952052116394

> <r_i_glide_einternal>
2.40202021598816

> <i_i_glide_confnum>
84

> <i_i_glide_posenum>
95

> <r_i_glide_eff_state_penalty>
0

> <r_lp_tautomer_probability>
1

> <s_m_job_name>
glide-dock_SP_all

> <r_glide_shape_similarity>
0.836145222187042

> <s_m_subgroup_title>
glide-dock_SP_all_pv1

> <s_m_subgroupid>
glide-dock_SP_all_pv1

> <b_m_subgroup_collapsed>
0

$$$$
