/home/yujie/leadopt/data/result/selection/sEH/lig_11g.sdf:1
                    3D
 Schrodinger Suite 2021-2.
 60 63  0  0  1  0            999 V2000
   -1.5043  -15.4035   25.6363 O   0  0  0  0  0  0
   -1.1340  -14.9665   26.7189 C   0  0  0  0  0  0
   -0.0475  -13.9364   26.7539 C   0  0  0  0  0  0
    0.7728  -13.7458   25.6251 C   0  0  0  0  0  0
    1.7380  -12.7326   25.5981 C   0  0  0  0  0  0
    1.8987  -11.9104   26.7183 C   0  0  0  0  0  0
    2.7800  -10.8769   26.9868 N   0  0  0  0  0  0
    3.8136  -10.3791   26.0946 C   0  0  0  0  0  0
    5.2841  -10.5931   26.5615 C   0  0  0  0  0  0
    6.2455  -10.2942   25.4075 C   0  0  0  0  0  0
    5.9904   -9.0910   24.9058 F   0  0  0  0  0  0
    6.1136  -11.1934   24.4391 F   0  0  0  0  0  0
    7.5110  -10.3067   25.8101 F   0  0  0  0  0  0
    5.6030  -11.9689   27.1698 C   0  0  0  0  0  0
    6.8996  -12.1024   27.4416 F   0  0  0  0  0  0
    4.9595  -12.1341   28.3175 F   0  0  0  0  0  0
    5.2527  -12.9412   26.3363 F   0  0  0  0  0  0
    2.4953  -10.3711   28.2424 C   0  0  0  0  0  0
    1.4984  -11.0991   28.8288 C   0  0  0  0  0  0
    1.0949  -12.0781   27.8750 C   0  0  0  0  0  0
    0.1154  -13.0889   27.8621 C   0  0  0  0  0  0
   -1.6956  -15.3489   27.8734 N   0  0  0  0  0  0
   -2.9265  -16.1320   27.9536 C   0  0  0  0  0  0
   -2.7773  -17.6515   27.8778 C   0  0  0  0  0  0
   -3.8369  -18.4814   27.4361 C   0  0  0  0  0  0
   -5.0980  -17.9088   26.8074 C   0  0  0  0  0  0
   -5.9252  -18.8649   26.4102 F   0  0  0  0  0  0
   -5.7301  -17.1575   27.6935 F   0  0  0  0  0  0
   -4.8085  -17.1746   25.7383 F   0  0  0  0  0  0
   -3.7398  -19.8744   27.6185 C   0  0  0  0  0  0
   -2.6036  -20.4563   28.1922 C   0  0  0  0  0  0
   -2.6407  -21.8099   28.5263 N   0  0  0  0  0  0
   -1.4449  -23.0385   28.3086 S   0  0  0  0  0  0
   -1.6174  -23.4171   26.5093 C   0  0  0  0  0  0
   -1.6393  -24.8934   26.1867 C   0  0  0  0  0  0
   -2.9180  -24.0925   26.1401 C   0  0  0  0  0  0
   -0.1309  -22.4309   28.5550 O   0  0  0  0  0  0
   -1.9079  -24.1725   29.1194 O   0  0  0  0  0  0
   -1.5053  -19.6445   28.4948 C   0  0  0  0  0  0
   -1.5972  -18.2546   28.3461 C   0  0  0  0  0  0
    0.6631  -14.3733   24.7545 H   0  0  0  0  0  0
    2.3594  -12.6106   24.7251 H   0  0  0  0  0  0
    3.6312   -9.3140   25.9430 H   0  0  0  0  0  0
    3.6750  -10.8391   25.1164 H   0  0  0  0  0  0
    5.4797   -9.8604   27.3453 H   0  0  0  0  0  0
    3.0589   -9.5410   28.6412 H   0  0  0  0  0  0
    1.0720  -10.9585   29.8129 H   0  0  0  0  0  0
   -0.5267  -13.1860   28.7230 H   0  0  0  0  0  0
   -1.3493  -14.9583   28.7477 H   0  0  0  0  0  0
   -3.3823  -15.8985   28.9154 H   0  0  0  0  0  0
   -3.6232  -15.7520   27.2076 H   0  0  0  0  0  0
   -4.5669  -20.5103   27.3455 H   0  0  0  0  0  0
   -3.5737  -22.1892   28.5391 H   0  0  0  0  0  0
   -1.1432  -22.6898   25.8486 H   0  0  0  0  0  0
   -1.2121  -25.2014   25.2331 H   0  0  0  0  0  0
   -1.5175  -25.6070   27.0013 H   0  0  0  0  0  0
   -3.6490  -24.2402   26.9390 H   0  0  0  0  0  0
   -3.3382  -23.8625   25.1666 H   0  0  0  0  0  0
   -0.6145  -20.0608   28.9406 H   0  0  0  0  0  0
   -0.7662  -17.6473   28.6797 H   0  0  0  0  0  0
  1  2  2  0  0  0
  2  3  1  0  0  0
  2 22  1  0  0  0
  3 21  1  0  0  0
  3  4  2  0  0  0
  4  5  1  0  0  0
  4 41  1  0  0  0
  5  6  2  0  0  0
  5 42  1  0  0  0
  6  7  1  0  0  0
  6 20  1  0  0  0
  7  8  1  0  0  0
  7 18  1  0  0  0
  8  9  1  0  0  0
  8 43  1  0  0  0
  8 44  1  0  0  0
  9 10  1  0  0  0
  9 14  1  0  0  0
  9 45  1  0  0  0
 10 11  1  0  0  0
 10 12  1  0  0  0
 10 13  1  0  0  0
 14 15  1  0  0  0
 14 16  1  0  0  0
 14 17  1  0  0  0
 18 19  2  0  0  0
 18 46  1  0  0  0
 19 20  1  0  0  0
 19 47  1  0  0  0
 20 21  2  0  0  0
 21 48  1  0  0  0
 22 23  1  0  0  0
 22 49  1  0  0  0
 23 24  1  0  0  0
 23 50  1  0  0  0
 23 51  1  0  0  0
 24 40  1  0  0  0
 24 25  2  0  0  0
 25 26  1  0  0  0
 25 30  1  0  0  0
 26 27  1  0  0  0
 26 28  1  0  0  0
 26 29  1  0  0  0
 30 31  2  0  0  0
 30 52  1  0  0  0
 31 32  1  0  0  0
 31 39  1  0  0  0
 32 33  1  0  0  0
 32 53  1  0  0  0
 33 34  1  0  0  0
 33 37  2  0  0  0
 33 38  2  0  0  0
 34 36  1  0  0  0
 34 35  1  0  0  0
 34 54  1  0  0  0
 35 36  1  0  0  0
 35 55  1  0  0  0
 35 56  1  0  0  0
 36 57  1  0  0  0
 36 58  1  0  0  0
 39 40  2  0  0  0
 39 59  1  0  0  0
 40 60  1  0  0  0
M  END
> <s_m_entry_id>
60

> <s_m_entry_name>
sEH_lig_11g.1

> <s_m_Source_Path>
C:\Users\yujiethinkpad\Desktop\selection\selection\sEH_pose

> <s_m_Source_File>
sEH_lig_11g.sdf

> <i_m_Source_File_Index>
1

> <i_lp_mmshare_version>
51139

> <i_f3d_flags>
0

> <s_epik_input>
RkMoRikoRilbQ0hdKEMoRikoRilGKVtDSDJdbjFbY0hdW2NIXWMoYzEyKVtjSF1jKFtjSF1bY0hdMilDKD1PKVtOSF1bQ0gyXWMzYyhDKEYpKEYpRilbY0hdYyhbY0hdW2NIXTMpW05IXVMoPU8pKD1PKVtDSF00W0NIMl1bQ0gyXTQ=

> <s_epik_cmdline>
J2VwaWtfcHl0aG9uJywgJy1waHQnLCAnMi4wJywgJy1waCcsICc3LjAnLCAnLXRuJywgJzgnLCAnLW1hJywgJzIwMCcsICctaW1hZScsICc8aW5maWxlLm1hZT4nLCAnLW9tYWUnLCAnPG91dGZpbGUubWFlPic=

> <r_epik_Ionization_Penalty>
  0.0750

> <r_epik_Ionization_Penalty_Charging>
  0.0000

> <r_epik_Ionization_Penalty_Neutral>
  0.0750

> <r_epik_State_Penalty>
  0.0661

> <r_epik_Charging_Adjusted_Penalty>
0.0660634

> <i_epik_Tot_Q>
0

> <i_epik_Tot_abs_Q>
0

> <s_lp_Force_Field>
OPLS3e

> <r_lp_Energy>
36.9537

> <b_lp_Chiralities_Consistent>
1

> <s_lp_Variant>
/home/yujie/leadopt/data/result/selection/sEH/lig_11g.sdf:1-1

> <s_i_glide_gridfile>
glide-grid_sEH

> <i_i_glide_lignum>
45

> <i_i_glide_rotatable_bonds>
12

> <r_i_docking_score>
-12.9466945611627

> <r_i_glide_ligand_efficiency>
-0.323667364029068

> <r_i_glide_ligand_efficiency_sa>
-1.10692681306681

> <r_i_glide_ligand_efficiency_ln>
-2.76114894568329

> <r_i_glide_gscore>
-13.0127945611627

> <r_i_glide_lipo>
-4.90061260018377

> <r_i_glide_hbond>
-0.72

> <r_i_glide_metal>
0

> <r_i_glide_rewards>
-2.69431532595317

> <r_i_glide_evdw>
-58.4784965515137

> <r_i_glide_ecoul>
-13.1911926269531

> <r_i_glide_erotb>
0.404737086592881

> <r_i_glide_esite>
-0.2

> <r_i_glide_emodel>
-126.056454862392

> <r_i_glide_energy>
-71.6696891784668

> <r_i_glide_einternal>
4.0485200881958

> <i_i_glide_confnum>
143

> <i_i_glide_posenum>
227

> <r_i_glide_eff_state_penalty>
0.0661

> <s_m_job_name>
glide-dock_SP_all

> <r_glide_shape_similarity>
0.956760704517365

> <s_m_subgroup_title>
glide-dock_SP_all_pv1

> <s_m_subgroupid>
glide-dock_SP_all_pv1

> <b_m_subgroup_collapsed>
0

$$$$
