/home/yujie/leadopt/data/result/selection/sEH/lig_7c.sdf:1
                    3D
 Schrodinger Suite 2021-2.
 49 52  0  0  1  0            999 V2000
   -1.4864  -15.3875   25.6557 O   0  0  0  0  0  0
   -1.1213  -14.9586   26.7434 C   0  0  0  0  0  0
   -0.0339  -13.9255   26.7846 C   0  0  0  0  0  0
    0.7799  -13.7310   25.6464 C   0  0  0  0  0  0
    1.7475  -12.7144   25.5817 C   0  0  0  0  0  0
    1.8776  -11.9007   26.6971 C   0  0  0  0  0  0
    2.6912  -10.8030   26.9789 N   0  0  0  0  0  0
    3.6392  -10.2846   25.9885 C   0  0  0  0  0  0
    5.0670  -10.7690   26.1812 C   0  0  0  0  0  0
    5.4057  -11.7347   27.1480 C   0  0  0  0  0  0
    6.7280  -12.1689   27.2836 C   0  0  0  0  0  0
    7.0396  -13.0456   28.2615 F   0  0  0  0  0  0
    7.7244  -11.6662   26.4389 C   0  0  0  0  0  0
    7.4029  -10.6928   25.4834 C   0  0  0  0  0  0
    6.0792  -10.2429   25.3596 C   0  0  0  0  0  0
    2.4655  -10.3682   28.2386 C   0  0  0  0  0  0
    1.4899  -11.1482   28.7723 N   0  3  0  0  0  0
    1.0925  -12.1014   27.8424 C   0  0  0  0  0  0
    0.1237  -13.0912   27.9082 C   0  0  0  0  0  0
   -1.6917  -15.3484   27.8938 N   0  0  0  0  0  0
   -2.9263  -16.1335   27.9603 C   0  0  0  0  0  0
   -2.7782  -17.6547   27.8828 C   0  0  0  0  0  0
   -3.8379  -18.4859   27.4390 C   0  0  0  0  0  0
   -5.0989  -17.9114   26.8101 C   0  0  0  0  0  0
   -4.8064  -17.1768   25.7416 F   0  0  0  0  0  0
   -5.9289  -18.8650   26.4106 F   0  0  0  0  0  0
   -5.7321  -17.1604   27.6973 F   0  0  0  0  0  0
   -3.7342  -19.8835   27.6028 C   0  0  0  0  0  0
   -2.5821  -20.4663   28.1455 C   0  0  0  0  0  0
   -1.4999  -19.6493   28.4880 C   0  0  0  0  0  0
   -1.5973  -18.2571   28.3526 C   0  0  0  0  0  0
    0.6599  -14.3630   24.7782 H   0  0  0  0  0  0
    2.3459  -12.5754   24.6935 H   0  0  0  0  0  0
    3.2922  -10.5289   24.9845 H   0  0  0  0  0  0
    3.6212   -9.1968   26.0615 H   0  0  0  0  0  0
    4.6624  -12.1584   27.8056 H   0  0  0  0  0  0
    8.7419  -12.0101   26.5435 H   0  0  0  0  0  0
    8.1737  -10.2891   24.8437 H   0  0  0  0  0  0
    5.8396   -9.4969   24.6163 H   0  0  0  0  0  0
    2.9702   -9.5391   28.7128 H   0  0  0  0  0  0
   -0.4997  -13.2006   28.7843 H   0  0  0  0  0  0
   -1.3485  -14.9796   28.7801 H   0  0  0  0  0  0
   -3.6158  -15.7576   27.2070 H   0  0  0  0  0  0
   -3.3972  -15.9033   28.9169 H   0  0  0  0  0  0
   -4.5440  -20.5322   27.3026 H   0  0  0  0  0  0
   -2.5137  -21.5380   28.2625 H   0  0  0  0  0  0
   -0.5942  -20.0876   28.8849 H   0  0  0  0  0  0
   -0.7675  -17.6510   28.6861 H   0  0  0  0  0  0
    1.1182  -11.0343   29.7039 H   0  0  0  0  0  0
  1  2  2  0  0  0
  2  3  1  0  0  0
  2 20  1  0  0  0
  3 19  1  0  0  0
  3  4  2  0  0  0
  4  5  1  0  0  0
  4 32  1  0  0  0
  5  6  2  0  0  0
  5 33  1  0  0  0
  6  7  1  0  0  0
  6 18  1  0  0  0
  7  8  1  0  0  0
  7 16  1  0  0  0
  8  9  1  0  0  0
  8 34  1  0  0  0
  8 35  1  0  0  0
  9 15  1  0  0  0
  9 10  2  0  0  0
 10 11  1  0  0  0
 10 36  1  0  0  0
 11 12  1  0  0  0
 11 13  2  0  0  0
 13 14  1  0  0  0
 13 37  1  0  0  0
 14 15  2  0  0  0
 14 38  1  0  0  0
 15 39  1  0  0  0
 16 17  2  0  0  0
 16 40  1  0  0  0
 17 18  1  0  0  0
 17 49  1  0  0  0
 18 19  2  0  0  0
 19 41  1  0  0  0
 20 21  1  0  0  0
 20 42  1  0  0  0
 21 22  1  0  0  0
 21 43  1  0  0  0
 21 44  1  0  0  0
 22 31  1  0  0  0
 22 23  2  0  0  0
 23 24  1  0  0  0
 23 28  1  0  0  0
 24 25  1  0  0  0
 24 26  1  0  0  0
 24 27  1  0  0  0
 28 29  2  0  0  0
 28 45  1  0  0  0
 29 30  1  0  0  0
 29 46  1  0  0  0
 30 31  2  0  0  0
 30 47  1  0  0  0
 31 48  1  0  0  0
M  CHG  1  17   1
M  END
> <s_m_entry_id>
109

> <s_m_entry_name>
sEH_lig_7c.1

> <s_m_Source_Path>
C:\Users\yujiethinkpad\Desktop\selection\selection\sEH_pose

> <s_m_Source_File>
sEH_lig_7c.sdf

> <i_m_Source_File_Index>
1

> <i_lp_mmshare_version>
51139

> <i_f3d_flags>
0

> <s_epik_input>
W2NIXTFbY0hdW2NIXVtjSF1jKEMoRikoRilGKWMxW0NIMl1bTkhdQyg9TyljKFtjSF1bY0hdMilbY0hdYyhjMjMpbltjSF1uM1tDSDJdYzRbY0hdYyhGKVtjSF1bY0hdW2NIXTQ=

> <s_epik_cmdline>
J2VwaWtfcHl0aG9uJywgJy1waHQnLCAnMi4wJywgJy1waCcsICc3LjAnLCAnLXRuJywgJzgnLCAnLW1hJywgJzIwMCcsICctaW1hZScsICc8aW5maWxlLm1hZT4nLCAnLW9tYWUnLCAnPG91dGZpbGUubWFlPic=

> <r_epik_Ionization_Penalty>
  2.2649

> <r_epik_Ionization_Penalty_Charging>
  2.2649

> <r_epik_Ionization_Penalty_Neutral>
  0.0000

> <r_epik_State_Penalty>
  2.4130

> <r_epik_Charging_Adjusted_Penalty>
4.6779

> <i_epik_Tot_Q>
1

> <i_epik_Tot_abs_Q>
1

> <s_lp_Force_Field>
OPLS3e

> <r_lp_Energy>
45.1362

> <b_lp_Chiralities_Consistent>
1

> <s_lp_Variant>
/home/yujie/leadopt/data/result/selection/sEH/lig_7c.sdf:1-2

> <s_i_glide_gridfile>
glide-grid_sEH

> <i_i_glide_lignum>
20

> <i_i_glide_rotatable_bonds>
7

> <r_i_docking_score>
-8.91816301814175

> <r_i_glide_ligand_efficiency>
-0.287682678004572

> <r_i_glide_ligand_efficiency_sa>
-0.903720797677252

> <r_i_glide_ligand_efficiency_ln>
-2.01131906946432

> <r_i_glide_gscore>
-11.3311630181417

> <r_i_glide_lipo>
-4.0466394431941

> <r_i_glide_hbond>
-0.72

> <r_i_glide_metal>
0

> <r_i_glide_rewards>
-3.18276430982749

> <r_i_glide_evdw>
-45.0306015014648

> <r_i_glide_ecoul>
-10.5307502746582

> <r_i_glide_erotb>
0.649383351151816

> <r_i_glide_esite>
-0.2

> <r_i_glide_emodel>
-85.162573388568

> <r_i_glide_energy>
-55.561351776123

> <r_i_glide_einternal>
2.64326691627502

> <i_i_glide_confnum>
60

> <i_i_glide_posenum>
241

> <r_i_glide_eff_state_penalty>
2.413

> <s_m_job_name>
glide-dock_SP_all

> <r_glide_shape_similarity>
0.839083135128021

> <s_m_subgroup_title>
glide-dock_SP_all_pv1

> <s_m_subgroupid>
glide-dock_SP_all_pv1

> <b_m_subgroup_collapsed>
0

$$$$
