/home/yujie/leadopt/data/result/selection/sEH/lig_11b.sdf:1
                    3D
 Schrodinger Suite 2021-2.
 50 53  0  0  1  0            999 V2000
   -1.5016  -15.4219   25.6644 O   0  0  0  0  0  0
   -1.1429  -14.9535   26.7395 C   0  0  0  0  0  0
   -0.0490  -13.9309   26.7599 C   0  0  0  0  0  0
    0.7677  -13.7434   25.6246 C   0  0  0  0  0  0
    1.7304  -12.7249   25.5917 C   0  0  0  0  0  0
    1.8819  -11.8997   26.7107 C   0  0  0  0  0  0
    2.7281  -10.8373   26.9661 N   0  0  0  0  0  0
    3.7213  -10.3056   26.0606 C   0  0  0  0  0  0
    2.4863  -10.3693   28.2439 C   0  0  0  0  0  0
    1.5041  -11.1104   28.8366 C   0  0  0  0  0  0
    1.0916  -12.0772   27.8767 C   0  0  0  0  0  0
    0.1195  -13.0907   27.8705 C   0  0  0  0  0  0
   -1.7329  -15.2887   27.8962 N   0  0  0  0  0  0
   -2.9515  -16.0901   27.9668 C   0  0  0  0  0  0
   -2.7217  -17.5943   27.9410 C   0  0  0  0  0  0
   -3.6969  -18.5181   27.4985 C   0  0  0  0  0  0
   -4.9876  -18.0323   26.8570 C   0  0  0  0  0  0
   -5.6937  -17.3128   27.7171 F   0  0  0  0  0  0
   -4.7407  -17.2895   25.7838 F   0  0  0  0  0  0
   -5.7300  -19.0535   26.4613 F   0  0  0  0  0  0
   -3.4539  -19.9083   27.6624 C   0  0  0  0  0  0
   -2.2427  -20.3807   28.2236 C   0  0  0  0  0  0
   -1.8685  -21.6470   28.4494 N   0  5  0  0  0  0
   -2.6621  -23.0358   28.3041 S   0  0  0  0  0  0
   -2.4998  -23.3352   26.4922 C   0  0  0  0  0  0
   -1.2790  -24.1272   26.1051 C   0  0  0  0  0  0
   -2.6361  -24.7873   26.1172 C   0  0  0  0  0  0
   -1.9448  -24.1225   28.9883 O   0  0  0  0  0  0
   -4.0988  -22.8896   28.5860 O   0  0  0  0  0  0
   -1.2889  -19.4374   28.6008 C   0  0  0  0  0  0
   -1.5139  -18.0738   28.4597 C   0  0  0  0  0  0
    0.6452  -14.3625   24.7476 H   0  0  0  0  0  0
    2.3371  -12.5747   24.7112 H   0  0  0  0  0  0
    3.2262   -9.8810   25.1888 H   0  0  0  0  0  0
    4.3107   -9.5292   26.5478 H   0  0  0  0  0  0
    4.3924  -11.1033   25.7374 H   0  0  0  0  0  0
    3.0504   -9.5367   28.6420 H   0  0  0  0  0  0
    1.0971  -10.9896   29.8312 H   0  0  0  0  0  0
   -0.5091  -13.1938   28.7417 H   0  0  0  0  0  0
   -1.3716  -14.9302   28.7780 H   0  0  0  0  0  0
   -3.4449  -15.8545   28.9079 H   0  0  0  0  0  0
   -3.6422  -15.7663   27.1910 H   0  0  0  0  0  0
   -4.2006  -20.6245   27.3550 H   0  0  0  0  0  0
   -2.9069  -22.5519   25.8578 H   0  0  0  0  0  0
   -0.8422  -23.9168   25.1314 H   0  0  0  0  0  0
   -0.5681  -24.4101   26.8791 H   0  0  0  0  0  0
   -2.8331  -25.5096   26.9089 H   0  0  0  0  0  0
   -3.0883  -25.0204   25.1523 H   0  0  0  0  0  0
   -0.3511  -19.7537   29.0443 H   0  0  0  0  0  0
   -0.7522  -17.3999   28.8234 H   0  0  0  0  0  0
  1  2  2  0  0  0
  2  3  1  0  0  0
  2 13  1  0  0  0
  3 12  1  0  0  0
  3  4  2  0  0  0
  4  5  1  0  0  0
  4 32  1  0  0  0
  5  6  2  0  0  0
  5 33  1  0  0  0
  6  7  1  0  0  0
  6 11  1  0  0  0
  7  8  1  0  0  0
  7  9  1  0  0  0
  8 34  1  0  0  0
  8 35  1  0  0  0
  8 36  1  0  0  0
  9 10  2  0  0  0
  9 37  1  0  0  0
 10 11  1  0  0  0
 10 38  1  0  0  0
 11 12  2  0  0  0
 12 39  1  0  0  0
 13 14  1  0  0  0
 13 40  1  0  0  0
 14 15  1  0  0  0
 14 41  1  0  0  0
 14 42  1  0  0  0
 15 31  1  0  0  0
 15 16  2  0  0  0
 16 17  1  0  0  0
 16 21  1  0  0  0
 17 18  1  0  0  0
 17 19  1  0  0  0
 17 20  1  0  0  0
 21 22  2  0  0  0
 21 43  1  0  0  0
 22 23  1  0  0  0
 22 30  1  0  0  0
 23 24  1  0  0  0
 24 25  1  0  0  0
 24 28  2  0  0  0
 24 29  2  0  0  0
 25 27  1  0  0  0
 25 26  1  0  0  0
 25 44  1  0  0  0
 26 27  1  0  0  0
 26 45  1  0  0  0
 26 46  1  0  0  0
 27 47  1  0  0  0
 27 48  1  0  0  0
 30 31  2  0  0  0
 30 49  1  0  0  0
 31 50  1  0  0  0
M  CHG  1  23  -1
M  END
> <s_m_entry_id>
103

> <s_m_entry_name>
sEH_lig_11b.1

> <s_m_Source_Path>
C:\Users\yujiethinkpad\Desktop\selection\selection\sEH_pose

> <s_m_Source_File>
sEH_lig_11b.sdf

> <i_m_Source_File_Index>
1

> <i_lp_mmshare_version>
51139

> <i_f3d_flags>
0

> <s_epik_input>
W0NIM11uMVtjSF1bY0hdYyhjMTIpW2NIXWMoW2NIXVtjSF0yKUMoPU8pW05IXVtDSDJdYzNjKEMoRikoRilGKVtjSF1jKFtjSF1bY0hdMylbTkhdUyg9TykoPU8pW0NIXTRbQ0gyXVtDSDJdNA==

> <s_epik_cmdline>
J2VwaWtfcHl0aG9uJywgJy1waHQnLCAnMi4wJywgJy1waCcsICc3LjAnLCAnLXRuJywgJzgnLCAnLW1hJywgJzIwMCcsICctaW1hZScsICc8aW5maWxlLm1hZT4nLCAnLW9tYWUnLCAnPG91dGZpbGUubWFlPic=

> <r_epik_Ionization_Penalty>
  1.2618

> <r_epik_Ionization_Penalty_Charging>
  1.2618

> <r_epik_Ionization_Penalty_Neutral>
  0.0000

> <r_epik_State_Penalty>
  1.3325

> <r_epik_Charging_Adjusted_Penalty>
2.59425

> <i_epik_Tot_Q>
-1

> <i_epik_Tot_abs_Q>
1

> <s_lp_Force_Field>
OPLS3e

> <r_lp_Energy>
47.3694

> <b_lp_Chiralities_Consistent>
1

> <s_lp_Variant>
/home/yujie/leadopt/data/result/selection/sEH/lig_11b.sdf:1-2

> <s_i_glide_gridfile>
glide-grid_sEH

> <i_i_glide_lignum>
40

> <i_i_glide_rotatable_bonds>
8

> <r_i_docking_score>
-10.6265695323951

> <r_i_glide_ligand_efficiency>
-0.342792565561133

> <r_i_glide_ligand_efficiency_sa>
-1.07684193200473

> <r_i_glide_ligand_efficiency_ln>
-2.39661709480035

> <r_i_glide_gscore>
-11.9590695323951

> <r_i_glide_lipo>
-4.48291678325409

> <r_i_glide_hbond>
-0.72

> <r_i_glide_metal>
0

> <r_i_glide_rewards>
-2.81764716662916

> <r_i_glide_evdw>
-49.8737182617188

> <r_i_glide_ecoul>
-12.9098443984985

> <r_i_glide_erotb>
0.69165699034884

> <r_i_glide_esite>
-0.2

> <r_i_glide_emodel>
-89.8383474132025

> <r_i_glide_energy>
-62.7835626602173

> <r_i_glide_einternal>
3.7104856967926

> <i_i_glide_confnum>
107

> <i_i_glide_posenum>
59

> <r_i_glide_eff_state_penalty>
1.3325

> <s_m_job_name>
glide-dock_SP_all

> <r_glide_shape_similarity>
0.767731130123138

> <s_m_subgroup_title>
glide-dock_SP_all_pv1

> <s_m_subgroupid>
glide-dock_SP_all_pv1

> <b_m_subgroup_collapsed>
0

$$$$
