30
                    3D
 Schrodinger Suite 2021-2.
 41 43  0  0  1  0            999 V2000
    3.0900  -47.2504    6.7747 O   0  0  0  0  0  0
    3.0863  -48.4855    6.5974 C   0  0  0  0  0  0
    4.1511  -49.1309    6.6518 O   0  5  0  0  0  0
    1.7953  -49.1810    6.3522 C   0  0  0  0  0  0
    0.0202  -50.9573    6.3447 C   0  0  0  0  0  0
   -0.8407  -52.0632    6.4168 C   0  0  0  0  0  0
   -2.2170  -51.8957    6.1858 C   0  0  0  0  0  0
   -2.7295  -50.6268    5.8842 C   0  0  0  0  0  0
   -1.8581  -49.5384    5.7909 C   0  0  0  0  0  0
   -0.4683  -49.6764    6.0068 C   0  0  0  0  0  0
    0.5734  -48.7000    5.9545 C   0  0  0  0  0  0
    0.2448  -47.3095    5.6230 C   0  0  0  0  0  0
   -0.1713  -46.7848    6.9543 C   0  0  0  0  0  0
   -0.7090  -45.4534    6.9809 C   0  0  0  0  0  0
   -1.9563  -45.4326    6.3519 O   0  0  0  0  0  0
   -3.0626  -45.1684    7.0920 C   0  0  0  0  0  0
   -3.4344  -45.8754    8.2484 C   0  0  0  0  0  0
   -4.7420  -45.7252    8.7536 C   0  0  0  0  0  0
   -5.6579  -44.8869    8.0913 C   0  0  0  0  0  0
   -5.2664  -44.1936    6.9412 C   0  0  0  0  0  0
   -3.9523  -44.2831    6.4818 C   0  0  0  0  0  0
   -0.4508  -53.0370    6.6725 H   0  0  0  0  0  0
   -2.8873  -52.7411    6.2505 H   0  0  0  0  0  0
   -3.7866  -50.4971    5.6999 H   0  0  0  0  0  0
   -2.2575  -48.5612    5.5607 H   0  0  0  0  0  0
   -0.5008  -47.2856    4.8287 H   0  0  0  0  0  0
    1.1238  -46.8322    5.1879 H   0  0  0  0  0  0
    0.7019  -46.8004    7.6076 H   0  0  0  0  0  0
   -0.8773  -47.4404    7.4620 H   0  0  0  0  0  0
   -0.0179  -44.7548    6.5043 H   0  0  0  0  0  0
   -0.8982  -45.1460    8.0046 H   0  0  0  0  0  0
   -2.7455  -46.5598    8.7221 H   0  0  0  0  0  0
   -3.6200  -43.6844    5.6474 H   0  0  0  0  0  0
    1.7525  -50.8931    6.6326 N   0  0  0  0  0  0
    2.5890  -51.3869    6.9029 H   0  0  0  0  0  0
   -5.9802  -43.5863    6.4043 H   0  0  0  0  0  0
   -6.6746  -44.7950    8.4449 H   0  0  0  0  0  0
   -5.1804  -46.4948    9.9657 C   0  0  0  0  0  0
   -5.4774  -45.8080   10.7581 H   0  0  0  0  0  0
   -4.3741  -47.1282   10.3360 H   0  0  0  0  0  0
   -6.0276  -47.1355    9.7269 H   0  0  0  0  0  0
  1  2  2  0  0  0
  2  3  1  0  0  0
  2  4  1  0  0  0
  4 11  2  0  0  0
  4 34  1  0  0  0
  5  6  1  0  0  0
  5 10  2  0  0  0
  5 34  1  0  0  0
  6  7  2  0  0  0
  6 22  1  0  0  0
  7  8  1  0  0  0
  7 23  1  0  0  0
  8  9  2  0  0  0
  8 24  1  0  0  0
  9 10  1  0  0  0
  9 25  1  0  0  0
 10 11  1  0  0  0
 11 12  1  0  0  0
 12 26  1  0  0  0
 12 27  1  0  0  0
 12 13  1  0  0  0
 13 14  1  0  0  0
 13 28  1  0  0  0
 13 29  1  0  0  0
 14 15  1  0  0  0
 14 30  1  0  0  0
 14 31  1  0  0  0
 15 16  1  0  0  0
 16 17  1  0  0  0
 16 21  2  0  0  0
 17 18  2  0  0  0
 17 32  1  0  0  0
 18 19  1  0  0  0
 18 38  1  0  0  0
 19 20  2  0  0  0
 19 37  1  0  0  0
 20 21  1  0  0  0
 20 36  1  0  0  0
 21 33  1  0  0  0
 34 35  1  0  0  0
 38 39  1  0  0  0
 38 40  1  0  0  0
 38 41  1  0  0  0
M  CHG  1   3  -1
M  END
> <s_m_entry_id>
189

> <s_m_entry_name>
MCL1_30.1

> <r_m_Molecular_weight>
308.36021

> <s_m_Source_Path>
C:\Users\yujiethinkpad\Desktop\05A\MCL1\original

> <s_m_Source_File>
MCL1_30.sdf

> <r_user_dG.exp>
-7.85321195175529

> <s_fepmapper_entryid>
18

> <i_fepmapper_bias>
0

> <i_fepmapper_affinity>
1

> <r_fepmapper_exp_dG>
-7.85321195176

> <i_fepmapper_unit>
1

> <i_m_Source_File_Index>
1

> <s_m_job_name>
align_ligands_1

> <s_i_glide_gridfile>
glide-grid_MCL1

> <i_i_glide_lignum>
14

> <i_i_glide_rotatable_bonds>
6

> <r_i_docking_score>
-7.32286738974511

> <r_i_glide_ligand_efficiency>
-0.31838553868457

> <r_i_glide_ligand_efficiency_sa>
-0.905446119380961

> <r_i_glide_ligand_efficiency_ln>
-1.77073573493074

> <r_i_glide_gscore>
-7.32286738974511

> <r_i_glide_lipo>
-4.27884000527043

> <r_i_glide_hbond>
-0.2

> <r_i_glide_metal>
0

> <r_i_glide_rewards>
-1.95445248401996

> <r_i_glide_evdw>
-27.8798694610596

> <r_i_glide_ecoul>
-3.01643538475037

> <r_i_glide_erotb>
0.972874471200538

> <r_i_glide_esite>
-0.0159905908897182

> <r_i_glide_emodel>
-39.3561750565586

> <r_i_glide_energy>
-30.8963048458099

> <r_i_glide_einternal>
2.45861387252808

> <i_i_glide_confnum>
260

> <i_i_glide_posenum>
39

> <r_i_glide_eff_state_penalty>
0

> <r_glide_shape_similarity>
0.886288285255432

> <i_phase_Input_Structure_Number>
37

> <i_phase_Structure_Number>
37

> <r_phase_Similarity_to_Reference>
0.90918595660669

> <i_phase_Reference_Structure>
1

> <s_phase_Alignment_Method>
snapped core

> <s_phase_Alignment_Reason>


> <s_phase_Core_SMARTS>
a1aaaaa1AAAAa(aa2)a(a23)aaaa3

> <s_f3d_frozen_atoms>
17 18 19 20 21 16 15 14 13 12 11 4 34 10 5 9 8 7 6 32 37 36 33 30 31 28 29 26 27 35 25 24 23 22

> <s_m_subgroup_title>
align_ligands_1->glide-dock_SP_redock_4245_lib1

> <s_m_subgroupid>
align_ligands_1->glide-dock_SP_redock_4245_lib11

> <b_m_subgroup_collapsed>
0

$$$$
