32
                    3D
 Schrodinger Suite 2021-2.
 41 43  0  0  1  0            999 V2000
    3.0900  -47.2504    6.7747 O   0  0  0  0  0  0
    3.0863  -48.4855    6.5974 C   0  0  0  0  0  0
    4.1511  -49.1309    6.6518 O   0  5  0  0  0  0
    1.7953  -49.1810    6.3522 C   0  0  0  0  0  0
    0.0202  -50.9573    6.3447 C   0  0  0  0  0  0
   -0.8407  -52.0632    6.4168 C   0  0  0  0  0  0
   -2.2170  -51.8957    6.1858 C   0  0  0  0  0  0
   -2.7295  -50.6268    5.8842 C   0  0  0  0  0  0
   -1.8581  -49.5384    5.7909 C   0  0  0  0  0  0
   -0.4683  -49.6764    6.0068 C   0  0  0  0  0  0
    0.5734  -48.7000    5.9545 C   0  0  0  0  0  0
    0.2448  -47.3095    5.6230 C   0  0  0  0  0  0
   -0.1713  -46.7848    6.9543 C   0  0  0  0  0  0
   -0.7090  -45.4534    6.9809 C   0  0  0  0  0  0
   -1.9563  -45.4326    6.3519 O   0  0  0  0  0  0
   -3.0626  -45.1684    7.0920 C   0  0  0  0  0  0
   -3.4344  -45.8754    8.2484 C   0  0  0  0  0  0
   -4.7420  -45.7252    8.7536 C   0  0  0  0  0  0
   -5.6579  -44.8869    8.0913 C   0  0  0  0  0  0
   -5.2664  -44.1936    6.9412 C   0  0  0  0  0  0
   -3.9523  -44.2831    6.4818 C   0  0  0  0  0  0
   -0.4513  -53.0362    6.6744 H   0  0  0  0  0  0
   -2.8866  -52.7405    6.2482 H   0  0  0  0  0  0
   -3.7843  -50.4944    5.6920 H   0  0  0  0  0  0
   -2.2684  -48.5666    5.5574 H   0  0  0  0  0  0
   -0.4937  -47.2688    4.8242 H   0  0  0  0  0  0
    1.1262  -46.8328    5.1933 H   0  0  0  0  0  0
    0.6829  -46.8208    7.6264 H   0  0  0  0  0  0
   -0.9000  -47.4580    7.4018 H   0  0  0  0  0  0
    0.0033  -44.7795    6.4978 H   0  0  0  0  0  0
   -0.8535  -45.1352    8.0104 H   0  0  0  0  0  0
   -2.7106  -46.5275    8.7203 H   0  0  0  0  0  0
   -3.6281  -43.6056    5.7024 H   0  0  0  0  0  0
    1.7525  -50.8931    6.6326 N   0  0  0  0  0  0
    2.5848  -51.3867    6.9021 H   0  0  0  0  0  0
   -5.9786  -43.5782    6.4039 H   0  0  0  0  0  0
   -5.0196  -46.1926    9.6895 H   0  0  0  0  0  0
   -7.0397  -44.6881    8.6396 C   0  0  0  0  0  0
   -7.7419  -44.3940    7.8596 H   0  0  0  0  0  0
   -7.0220  -43.9083    9.3990 H   0  0  0  0  0  0
   -7.4032  -45.6002    9.1092 H   0  0  0  0  0  0
  1  2  2  0  0  0
  2  3  1  0  0  0
  2  4  1  0  0  0
  4 11  2  0  0  0
  4 34  1  0  0  0
  5  6  1  0  0  0
  5 10  2  0  0  0
  5 34  1  0  0  0
  6  7  2  0  0  0
  6 22  1  0  0  0
  7  8  1  0  0  0
  7 23  1  0  0  0
  8  9  2  0  0  0
  8 24  1  0  0  0
  9 10  1  0  0  0
  9 25  1  0  0  0
 10 11  1  0  0  0
 11 12  1  0  0  0
 12 26  1  0  0  0
 12 27  1  0  0  0
 12 13  1  0  0  0
 13 14  1  0  0  0
 13 28  1  0  0  0
 13 29  1  0  0  0
 14 15  1  0  0  0
 14 30  1  0  0  0
 14 31  1  0  0  0
 15 16  1  0  0  0
 16 17  1  0  0  0
 16 21  2  0  0  0
 17 18  2  0  0  0
 17 32  1  0  0  0
 18 19  1  0  0  0
 18 37  1  0  0  0
 19 20  2  0  0  0
 19 38  1  0  0  0
 20 21  1  0  0  0
 20 36  1  0  0  0
 21 33  1  0  0  0
 34 35  1  0  0  0
 38 39  1  0  0  0
 38 40  1  0  0  0
 38 41  1  0  0  0
M  CHG  1   3  -1
M  END
> <s_m_entry_id>
192

> <s_m_entry_name>
MCL1_32.1

> <r_m_Molecular_weight>
308.36021

> <s_m_Source_Path>
C:\Users\yujiethinkpad\Desktop\05A\MCL1\original

> <s_m_Source_File>
MCL1_32.sdf

> <r_user_dG.exp>
-6.58301699393044

> <s_fepmapper_entryid>
10

> <i_fepmapper_bias>
0

> <i_fepmapper_affinity>
1

> <r_fepmapper_exp_dG>
-6.58301699393

> <i_fepmapper_unit>
1

> <i_m_Source_File_Index>
1

> <s_m_job_name>
align_ligands_1

> <s_i_glide_gridfile>
glide-grid_MCL1

> <i_i_glide_lignum>
16

> <i_i_glide_rotatable_bonds>
6

> <r_i_docking_score>
-7.11132437941605

> <r_i_glide_ligand_efficiency>
-0.30918801649635

> <r_i_glide_ligand_efficiency_sa>
-0.879289589760768

> <r_i_glide_ligand_efficiency_ln>
-1.7195827168672

> <r_i_glide_gscore>
-7.11132437941605

> <r_i_glide_lipo>
-4.25757559583923

> <r_i_glide_hbond>
-0.2

> <r_i_glide_metal>
0

> <r_i_glide_rewards>
-2.01411218869067

> <r_i_glide_evdw>
-23.4952793121338

> <r_i_glide_ecoul>
-2.81643676757813

> <r_i_glide_erotb>
0.972874471200538

> <r_i_glide_esite>
-0.0152815853432811

> <r_i_glide_emodel>
-33.5136704479107

> <r_i_glide_energy>
-26.3117160797119

> <r_i_glide_einternal>
3.92161798477173

> <i_i_glide_confnum>
197

> <i_i_glide_posenum>
366

> <r_i_glide_eff_state_penalty>
0

> <r_glide_shape_similarity>
0.897016048431396

> <i_phase_Input_Structure_Number>
40

> <i_phase_Structure_Number>
40

> <r_phase_Similarity_to_Reference>
0.874566719916528

> <i_phase_Reference_Structure>
1

> <s_phase_Alignment_Method>
snapped core

> <s_phase_Alignment_Reason>


> <s_phase_Core_SMARTS>
a1aaaaa1AAAAa(aa2)a(a23)aaaa3

> <s_f3d_frozen_atoms>
17 18 19 20 21 16 15 14 13 12 11 4 34 10 5 9 8 7 6 32 37 36 33 30 31 28 29 26 27 35 25 24 23 22

> <s_m_subgroup_title>
align_ligands_1->glide-dock_SP_redock_4245_lib1

> <s_m_subgroupid>
align_ligands_1->glide-dock_SP_redock_4245_lib11

> <b_m_subgroup_collapsed>
0

$$$$
