34
                    3D
 Schrodinger Suite 2021-2.
 41 43  0  0  1  0            999 V2000
    3.0900  -47.2504    6.7747 O   0  0  0  0  0  0
    3.0863  -48.4855    6.5974 C   0  0  0  0  0  0
    4.1511  -49.1309    6.6518 O   0  5  0  0  0  0
    1.7953  -49.1810    6.3522 C   0  0  0  0  0  0
    0.0202  -50.9573    6.3447 C   0  0  0  0  0  0
   -0.8407  -52.0632    6.4168 C   0  0  0  0  0  0
   -2.2170  -51.8957    6.1858 C   0  0  0  0  0  0
   -2.7295  -50.6268    5.8842 C   0  0  0  0  0  0
   -1.8581  -49.5384    5.7909 C   0  0  0  0  0  0
   -0.4683  -49.6764    6.0068 C   0  0  0  0  0  0
    0.5734  -48.7000    5.9545 C   0  0  0  0  0  0
    0.2448  -47.3095    5.6230 C   0  0  0  0  0  0
   -0.1713  -46.7848    6.9543 C   0  0  0  0  0  0
   -0.7090  -45.4534    6.9809 C   0  0  0  0  0  0
   -1.9563  -45.4326    6.3519 O   0  0  0  0  0  0
   -3.0626  -45.1684    7.0920 C   0  0  0  0  0  0
   -3.9523  -44.2831    6.4818 C   0  0  0  0  0  0
   -5.2664  -44.1936    6.9412 C   0  0  0  0  0  0
   -5.6579  -44.8869    8.0913 C   0  0  0  0  0  0
   -4.7420  -45.7252    8.7536 C   0  0  0  0  0  0
   -3.4344  -45.8754    8.2484 C   0  0  0  0  0  0
   -0.4530  -53.0374    6.6745 H   0  0  0  0  0  0
   -2.8864  -52.7414    6.2541 H   0  0  0  0  0  0
   -3.7871  -50.5019    5.6979 H   0  0  0  0  0  0
   -2.2526  -48.5598    5.5589 H   0  0  0  0  0  0
   -0.5052  -47.2806    4.8326 H   0  0  0  0  0  0
    1.1234  -46.8279    5.1917 H   0  0  0  0  0  0
    0.6817  -46.7971    7.6301 H   0  0  0  0  0  0
   -0.9186  -47.4307    7.4101 H   0  0  0  0  0  0
   -0.0097  -44.7511    6.5231 H   0  0  0  0  0  0
   -0.8980  -45.1718    8.0102 H   0  0  0  0  0  0
   -3.6314  -43.6938    5.6339 H   0  0  0  0  0  0
   -2.7634  -46.5766    8.7219 H   0  0  0  0  0  0
    1.7525  -50.8931    6.6326 N   0  0  0  0  0  0
    2.5899  -51.3999    6.9043 H   0  0  0  0  0  0
   -5.0378  -46.2869    9.6274 H   0  0  0  0  0  0
   -6.0003  -43.6494    6.3641 H   0  0  0  0  0  0
   -7.0998  -44.7476    8.5630 C   0  0  0  0  0  0
   -7.1815  -45.1149    9.8518 F   0  0  0  0  0  0
   -7.9554  -45.4722    7.8349 F   0  0  0  0  0  0
   -7.4924  -43.4918    8.3687 F   0  0  0  0  0  0
  1  2  2  0  0  0
  2  3  1  0  0  0
  2  4  1  0  0  0
  4 11  2  0  0  0
  4 34  1  0  0  0
  5  6  1  0  0  0
  5 10  2  0  0  0
  5 34  1  0  0  0
  6  7  2  0  0  0
  6 22  1  0  0  0
  7  8  1  0  0  0
  7 23  1  0  0  0
  8  9  2  0  0  0
  8 24  1  0  0  0
  9 10  1  0  0  0
  9 25  1  0  0  0
 10 11  1  0  0  0
 11 12  1  0  0  0
 12 26  1  0  0  0
 12 27  1  0  0  0
 12 13  1  0  0  0
 13 14  1  0  0  0
 13 28  1  0  0  0
 13 29  1  0  0  0
 14 15  1  0  0  0
 14 30  1  0  0  0
 14 31  1  0  0  0
 15 16  1  0  0  0
 16 17  1  0  0  0
 16 21  2  0  0  0
 17 18  2  0  0  0
 17 32  1  0  0  0
 18 19  1  0  0  0
 18 37  1  0  0  0
 19 20  2  0  0  0
 19 38  1  0  0  0
 20 21  1  0  0  0
 20 36  1  0  0  0
 21 33  1  0  0  0
 34 35  1  0  0  0
 38 39  1  0  0  0
 38 40  1  0  0  0
 38 41  1  0  0  0
M  CHG  1   3  -1
M  END
> <s_m_entry_id>
190

> <s_m_entry_name>
MCL1_34.1

> <r_m_Molecular_weight>
362.3315

> <s_m_Source_Path>
C:\Users\yujiethinkpad\Desktop\05A\MCL1\original

> <s_m_Source_File>
MCL1_34.sdf

> <r_user_dG.exp>
-6.86919156414505

> <s_fepmapper_entryid>
42

> <i_fepmapper_bias>
0

> <i_fepmapper_affinity>
1

> <r_fepmapper_exp_dG>
-6.86919156415

> <i_fepmapper_unit>
1

> <i_m_Source_File_Index>
1

> <s_m_job_name>
align_ligands_1

> <s_i_glide_gridfile>
glide-grid_MCL1

> <i_i_glide_lignum>
18

> <i_i_glide_rotatable_bonds>
7

> <r_i_docking_score>
-7.2906132486912

> <r_i_glide_ligand_efficiency>
-0.280408201872738

> <r_i_glide_ligand_efficiency_sa>
-0.830708194694992

> <r_i_glide_ligand_efficiency_ln>
-1.71217659900186

> <r_i_glide_gscore>
-7.2906132486912

> <r_i_glide_lipo>
-4.28173666497181

> <r_i_glide_hbond>
-0.2

> <r_i_glide_metal>
0

> <r_i_glide_rewards>
-2.25838715361231

> <r_i_glide_evdw>
-16.8235321044922

> <r_i_glide_ecoul>
-2.80439853668213

> <r_i_glide_erotb>
0.731300272525245

> <r_i_glide_esite>
-0.0199533169053855

> <r_i_glide_emodel>
-23.1417506912403

> <r_i_glide_energy>
-19.6279306411743

> <r_i_glide_einternal>
4.57591390609741

> <i_i_glide_confnum>
113

> <i_i_glide_posenum>
325

> <r_i_glide_eff_state_penalty>
0

> <r_glide_shape_similarity>
0.912415206432343

> <i_phase_Input_Structure_Number>
38

> <i_phase_Structure_Number>
38

> <r_phase_Similarity_to_Reference>
0.873734951144337

> <i_phase_Reference_Structure>
1

> <s_phase_Alignment_Method>
snapped core

> <s_phase_Alignment_Reason>


> <s_phase_Core_SMARTS>
a1aaaaa1AAAAa(aa2)a(a23)aaaa3

> <s_f3d_frozen_atoms>
21 20 19 18 17 16 15 14 13 12 11 4 34 10 5 9 8 7 6 33 36 37 32 30 31 28 29 26 27 35 25 24 23 22

> <s_m_subgroup_title>
align_ligands_1->glide-dock_SP_redock_4245_lib1

> <s_m_subgroupid>
align_ligands_1->glide-dock_SP_redock_4245_lib11

> <b_m_subgroup_collapsed>
0

$$$$
