35
                    3D
 Schrodinger Suite 2021-2.
 41 43  0  0  1  0            999 V2000
    3.0900  -47.2504    6.7747 O   0  0  0  0  0  0
    3.0863  -48.4855    6.5974 C   0  0  0  0  0  0
    4.1511  -49.1309    6.6518 O   0  5  0  0  0  0
    1.7953  -49.1810    6.3522 C   0  0  0  0  0  0
    0.0202  -50.9573    6.3447 C   0  0  0  0  0  0
   -0.8407  -52.0632    6.4168 C   0  0  0  0  0  0
   -2.2170  -51.8957    6.1858 C   0  0  0  0  0  0
   -2.7295  -50.6268    5.8842 C   0  0  0  0  0  0
   -1.8581  -49.5384    5.7909 C   0  0  0  0  0  0
   -0.4683  -49.6764    6.0068 C   0  0  0  0  0  0
    0.5734  -48.7000    5.9545 C   0  0  0  0  0  0
    0.2448  -47.3095    5.6230 C   0  0  0  0  0  0
   -0.1713  -46.7848    6.9543 C   0  0  0  0  0  0
   -0.7090  -45.4534    6.9809 C   0  0  0  0  0  0
   -1.9563  -45.4326    6.3519 O   0  0  0  0  0  0
   -3.0626  -45.1684    7.0920 C   0  0  0  0  0  0
   -3.9523  -44.2831    6.4818 C   0  0  0  0  0  0
   -5.2664  -44.1936    6.9412 C   0  0  0  0  0  0
   -5.6579  -44.8869    8.0913 C   0  0  0  0  0  0
   -4.7420  -45.7252    8.7536 C   0  0  0  0  0  0
   -3.4344  -45.8754    8.2484 C   0  0  0  0  0  0
   -0.4523  -53.0370    6.6751 H   0  0  0  0  0  0
   -2.8880  -52.7406    6.2535 H   0  0  0  0  0  0
   -3.7860  -50.4966    5.6995 H   0  0  0  0  0  0
   -2.2560  -48.5603    5.5596 H   0  0  0  0  0  0
   -0.4993  -47.2765    4.8259 H   0  0  0  0  0  0
    1.1279  -46.8296    5.1983 H   0  0  0  0  0  0
    0.6879  -46.7861    7.6216 H   0  0  0  0  0  0
   -0.9084  -47.4400    7.4138 H   0  0  0  0  0  0
   -0.0058  -44.7681    6.5004 H   0  0  0  0  0  0
   -0.8594  -45.1469    8.0114 H   0  0  0  0  0  0
   -3.6475  -43.7427    5.5964 H   0  0  0  0  0  0
   -2.7596  -46.5530    8.7499 H   0  0  0  0  0  0
    1.7525  -50.8931    6.6326 N   0  0  0  0  0  0
    2.5900  -51.3895    6.8958 H   0  0  0  0  0  0
   -5.0445  -46.2805    9.6296 H   0  0  0  0  0  0
   -7.2744  -44.6961    8.6464 Cl  0  0  0  0  0  0
   -6.2552  -43.4525    6.0702 C   0  0  0  0  0  0
   -5.9628  -43.5320    5.0223 H   0  0  0  0  0  0
   -6.3131  -42.3938    6.2986 H   0  0  0  0  0  0
   -7.2584  -43.8734    6.1342 H   0  0  0  0  0  0
  1  2  2  0  0  0
  2  3  1  0  0  0
  2  4  1  0  0  0
  4 11  2  0  0  0
  4 34  1  0  0  0
  5  6  1  0  0  0
  5 10  2  0  0  0
  5 34  1  0  0  0
  6  7  2  0  0  0
  6 22  1  0  0  0
  7  8  1  0  0  0
  7 23  1  0  0  0
  8  9  2  0  0  0
  8 24  1  0  0  0
  9 10  1  0  0  0
  9 25  1  0  0  0
 10 11  1  0  0  0
 11 12  1  0  0  0
 12 26  1  0  0  0
 12 27  1  0  0  0
 12 13  1  0  0  0
 13 14  1  0  0  0
 13 28  1  0  0  0
 13 29  1  0  0  0
 14 15  1  0  0  0
 14 30  1  0  0  0
 14 31  1  0  0  0
 15 16  1  0  0  0
 16 17  1  0  0  0
 16 21  2  0  0  0
 17 18  2  0  0  0
 17 32  1  0  0  0
 18 19  1  0  0  0
 18 38  1  0  0  0
 19 20  2  0  0  0
 19 37  1  0  0  0
 20 21  1  0  0  0
 20 36  1  0  0  0
 21 33  1  0  0  0
 34 35  1  0  0  0
 38 39  1  0  0  0
 38 40  1  0  0  0
 38 41  1  0  0  0
M  CHG  1   3  -1
M  END
> <s_m_entry_id>
185

> <s_m_entry_name>
MCL1_35.1

> <r_m_Molecular_weight>
342.80524

> <s_m_Source_Path>
C:\Users\yujiethinkpad\Desktop\05A\MCL1\original

> <s_m_Source_File>
MCL1_35.sdf

> <r_user_dG.exp>
-8.81264617449463

> <s_fepmapper_entryid>
6

> <i_fepmapper_bias>
0

> <i_fepmapper_affinity>
1

> <r_fepmapper_exp_dG>
-8.81264617449

> <i_fepmapper_unit>
1

> <i_m_Source_File_Index>
1

> <s_m_job_name>
align_ligands_1

> <s_i_glide_gridfile>
glide-grid_MCL1

> <i_i_glide_lignum>
19

> <i_i_glide_rotatable_bonds>
6

> <r_i_docking_score>
-7.51080890708553

> <r_i_glide_ligand_efficiency>
-0.312950371128564

> <r_i_glide_ligand_efficiency_sa>
-0.902705075619149

> <r_i_glide_ligand_efficiency_ln>
-1.79768122002871

> <r_i_glide_gscore>
-7.51080890708553

> <r_i_glide_lipo>
-4.62569557102979

> <r_i_glide_hbond>
-0.2

> <r_i_glide_metal>
0

> <r_i_glide_rewards>
-1.81215774098906

> <r_i_glide_evdw>
-25.2995452880859

> <r_i_glide_ecoul>
-2.67736339569092

> <r_i_glide_erotb>
0.807043462423793

> <r_i_glide_esite>
-0.0134172837325483

> <r_i_glide_emodel>
-39.1498763693329

> <r_i_glide_energy>
-27.9769086837769

> <r_i_glide_einternal>
3.92886352539063

> <i_i_glide_confnum>
260

> <i_i_glide_posenum>
22

> <r_i_glide_eff_state_penalty>
0

> <r_glide_shape_similarity>
0.926033556461334

> <i_phase_Input_Structure_Number>
33

> <i_phase_Structure_Number>
33

> <r_phase_Similarity_to_Reference>
0.929641214655323

> <i_phase_Reference_Structure>
1

> <s_phase_Alignment_Method>
snapped core

> <s_phase_Alignment_Reason>


> <s_phase_Core_SMARTS>
a1aaaaa1AAAAa(aa2)a(a23)aaaa3

> <s_f3d_frozen_atoms>
21 20 19 18 17 16 15 14 13 12 11 4 34 10 5 9 8 7 6 33 36 37 32 30 31 28 29 26 27 35 25 24 23 22

> <s_m_subgroup_title>
align_ligands_1->glide-dock_SP_redock_4245_lib1

> <s_m_subgroupid>
align_ligands_1->glide-dock_SP_redock_4245_lib11

> <b_m_subgroup_collapsed>
0

$$$$
