36
                    3D
 Schrodinger Suite 2021-2.
 44 46  0  0  1  0            999 V2000
    3.0900  -47.2504    6.7747 O   0  0  0  0  0  0
    3.0863  -48.4855    6.5974 C   0  0  0  0  0  0
    4.1511  -49.1309    6.6518 O   0  5  0  0  0  0
    1.7953  -49.1810    6.3522 C   0  0  0  0  0  0
    0.0202  -50.9573    6.3447 C   0  0  0  0  0  0
   -0.8407  -52.0632    6.4168 C   0  0  0  0  0  0
   -2.2170  -51.8957    6.1858 C   0  0  0  0  0  0
   -2.7295  -50.6268    5.8842 C   0  0  0  0  0  0
   -1.8581  -49.5384    5.7909 C   0  0  0  0  0  0
   -0.4683  -49.6764    6.0068 C   0  0  0  0  0  0
    0.5734  -48.7000    5.9545 C   0  0  0  0  0  0
    0.2448  -47.3095    5.6230 C   0  0  0  0  0  0
   -0.1713  -46.7848    6.9543 C   0  0  0  0  0  0
   -0.7090  -45.4534    6.9809 C   0  0  0  0  0  0
   -1.9563  -45.4326    6.3519 O   0  0  0  0  0  0
   -3.0626  -45.1684    7.0920 C   0  0  0  0  0  0
   -3.9523  -44.2831    6.4818 C   0  0  0  0  0  0
   -5.2664  -44.1936    6.9412 C   0  0  0  0  0  0
   -5.6579  -44.8869    8.0913 C   0  0  0  0  0  0
   -4.7420  -45.7252    8.7536 C   0  0  0  0  0  0
   -3.4344  -45.8754    8.2484 C   0  0  0  0  0  0
   -0.4574  -53.0383    6.6716 H   0  0  0  0  0  0
   -2.8836  -52.7406    6.2557 H   0  0  0  0  0  0
   -3.7865  -50.5022    5.6936 H   0  0  0  0  0  0
   -2.2491  -48.5543    5.5640 H   0  0  0  0  0  0
    1.1277  -46.8282    5.1990 H   0  0  0  0  0  0
   -0.4943  -47.2688    4.8258 H   0  0  0  0  0  0
   -0.8941  -47.4479    7.4279 H   0  0  0  0  0  0
    0.6912  -46.7867    7.6181 H   0  0  0  0  0  0
   -0.8878  -45.1482    8.0111 H   0  0  0  0  0  0
   -0.0131  -44.7686    6.4968 H   0  0  0  0  0  0
   -3.6255  -43.6355    5.6841 H   0  0  0  0  0  0
   -2.7072  -46.5011    8.7415 H   0  0  0  0  0  0
    1.7525  -50.8931    6.6326 N   0  0  0  0  0  0
    2.5861  -51.3999    6.8985 H   0  0  0  0  0  0
   -5.0157  -46.2318    9.6701 H   0  0  0  0  0  0
   -7.2744  -44.6961    8.6464 Cl  0  0  0  0  0  0
   -6.2306  -43.2577    6.2746 C   0  0  0  0  0  0
   -7.2409  -43.6588    6.3552 H   0  0  0  0  0  0
   -6.1866  -42.2834    6.7613 H   0  0  0  0  0  0
   -5.8650  -43.1105    4.8273 C   0  0  0  0  0  0
   -6.5657  -42.4304    4.3429 H   0  0  0  0  0  0
   -4.8548  -42.7094    4.7467 H   0  0  0  0  0  0
   -5.9090  -44.0848    4.3406 H   0  0  0  0  0  0
  1  2  2  0  0  0
  2  3  1  0  0  0
  2  4  1  0  0  0
  4 11  2  0  0  0
  4 34  1  0  0  0
  5  6  1  0  0  0
  5 10  2  0  0  0
  5 34  1  0  0  0
  6  7  2  0  0  0
  6 22  1  0  0  0
  7  8  1  0  0  0
  7 23  1  0  0  0
  8  9  2  0  0  0
  8 24  1  0  0  0
  9 10  1  0  0  0
  9 25  1  0  0  0
 10 11  1  0  0  0
 11 12  1  0  0  0
 12 26  1  0  0  0
 12 27  1  0  0  0
 12 13  1  0  0  0
 13 14  1  0  0  0
 13 28  1  0  0  0
 13 29  1  0  0  0
 14 15  1  0  0  0
 14 30  1  0  0  0
 14 31  1  0  0  0
 15 16  1  0  0  0
 16 17  1  0  0  0
 16 21  2  0  0  0
 17 18  2  0  0  0
 17 32  1  0  0  0
 18 19  1  0  0  0
 18 38  1  0  0  0
 19 20  2  0  0  0
 19 37  1  0  0  0
 20 21  1  0  0  0
 20 36  1  0  0  0
 21 33  1  0  0  0
 34 35  1  0  0  0
 38 39  1  0  0  0
 38 40  1  0  0  0
 38 41  1  0  0  0
 41 42  1  0  0  0
 41 43  1  0  0  0
 41 44  1  0  0  0
M  CHG  1   3  -1
M  END
> <s_m_entry_id>
179

> <s_m_entry_name>
MCL1_36.1

> <r_m_Molecular_weight>
356.83233

> <s_m_Source_Path>
C:\Users\yujiethinkpad\Desktop\05A\MCL1\original

> <s_m_Source_File>
MCL1_36.sdf

> <r_user_dG.exp>
-8.17902305143249

> <s_fepmapper_entryid>
37

> <i_fepmapper_bias>
0

> <i_fepmapper_affinity>
1

> <r_fepmapper_exp_dG>
-8.17902305143

> <i_fepmapper_unit>
1

> <i_m_Source_File_Index>
1

> <s_m_job_name>
align_ligands_1

> <s_i_glide_gridfile>
glide-grid_MCL1

> <i_i_glide_lignum>
20

> <i_i_glide_rotatable_bonds>
7

> <r_i_docking_score>
-8.02992260404354

> <r_i_glide_ligand_efficiency>
-0.321196904161742

> <r_i_glide_ligand_efficiency_sa>
-0.939185444220284

> <r_i_glide_ligand_efficiency_ln>
-1.90333229452052

> <r_i_glide_gscore>
-8.02992260404354

> <r_i_glide_lipo>
-4.79567951388476

> <r_i_glide_hbond>
-0.2

> <r_i_glide_metal>
0

> <r_i_glide_rewards>
-1.836624195075

> <r_i_glide_evdw>
-30.2949867248535

> <r_i_glide_ecoul>
-2.80638551712036

> <r_i_glide_erotb>
0.751512930677006

> <r_i_glide_esite>
-0.0134246619500579

> <r_i_glide_emodel>
-44.9878425104491

> <r_i_glide_energy>
-33.1013722419739

> <r_i_glide_einternal>
5.20924854278564

> <i_i_glide_confnum>
117

> <i_i_glide_posenum>
50

> <r_i_glide_eff_state_penalty>
0

> <r_glide_shape_similarity>
0.923945069313049

> <i_phase_Input_Structure_Number>
27

> <i_phase_Structure_Number>
27

> <r_phase_Similarity_to_Reference>
0.935006752984441

> <i_phase_Reference_Structure>
1

> <s_phase_Alignment_Method>
snapped core

> <s_phase_Alignment_Reason>


> <s_phase_Core_SMARTS>
a1aaaaa1AAAAa(aa2)a(a23)aaaa3

> <s_f3d_frozen_atoms>
21 20 19 18 17 16 15 14 13 12 11 4 34 10 5 9 8 7 6 33 36 37 32 30 31 28 29 26 27 35 25 24 23 22

> <s_m_subgroup_title>
align_ligands_1->glide-dock_SP_redock_4245_lib1

> <s_m_subgroupid>
align_ligands_1->glide-dock_SP_redock_4245_lib11

> <b_m_subgroup_collapsed>
0

$$$$
