38
                    3D
 Schrodinger Suite 2021-2.
 48 51  0  0  1  0            999 V2000
    3.0900  -47.2504    6.7747 O   0  0  0  0  0  0
    3.0863  -48.4855    6.5974 C   0  0  0  0  0  0
    4.1511  -49.1309    6.6518 O   0  5  0  0  0  0
    1.7953  -49.1810    6.3522 C   0  0  0  0  0  0
    0.0202  -50.9573    6.3447 C   0  0  0  0  0  0
   -0.8407  -52.0632    6.4168 C   0  0  0  0  0  0
   -2.2170  -51.8957    6.1858 C   0  0  0  0  0  0
   -2.7295  -50.6268    5.8842 C   0  0  0  0  0  0
   -1.8581  -49.5384    5.7909 C   0  0  0  0  0  0
   -0.4683  -49.6764    6.0068 C   0  0  0  0  0  0
    0.5734  -48.7000    5.9545 C   0  0  0  0  0  0
    0.2448  -47.3095    5.6230 C   0  0  0  0  0  0
   -0.1713  -46.7848    6.9543 C   0  0  0  0  0  0
   -0.7090  -45.4534    6.9809 C   0  0  0  0  0  0
   -1.9563  -45.4326    6.3519 O   0  0  0  0  0  0
   -3.0626  -45.1684    7.0920 C   0  0  0  0  0  0
   -3.4344  -45.8754    8.2484 C   0  0  0  0  0  0
   -4.7420  -45.7252    8.7536 C   0  0  0  0  0  0
   -5.6579  -44.8869    8.0913 C   0  0  0  0  0  0
   -5.2664  -44.1936    6.9412 C   0  0  0  0  0  0
   -3.9523  -44.2831    6.4818 C   0  0  0  0  0  0
   -0.4458  -53.0381    6.6637 H   0  0  0  0  0  0
   -2.8837  -52.7453    6.2147 H   0  0  0  0  0  0
   -3.7893  -50.5047    5.7287 H   0  0  0  0  0  0
   -2.2664  -48.5686    5.5737 H   0  0  0  0  0  0
    1.0398  -46.8109    5.0683 H   0  0  0  0  0  0
   -0.5869  -47.3733    4.9925 H   0  0  0  0  0  0
   -0.9993  -47.4007    7.2189 H   0  0  0  0  0  0
    0.5814  -46.9317    7.7282 H   0  0  0  0  0  0
   -0.8556  -45.1237    8.0042 H   0  0  0  0  0  0
   -0.0506  -44.6989    6.5568 H   0  0  0  0  0  0
   -2.7169  -46.5057    8.7521 H   0  0  0  0  0  0
   -3.6444  -43.6625    5.6684 H   0  0  0  0  0  0
    1.7525  -50.8931    6.6326 N   0  0  0  0  0  0
    2.5921  -51.4011    6.8928 H   0  0  0  0  0  0
   -5.9863  -43.5625    6.4532 H   0  0  0  0  0  0
   -6.6252  -44.6955    8.5317 H   0  0  0  0  0  0
   -6.4922  -46.7784   12.4822 C   0  0  0  0  0  0
   -6.8488  -47.5136   11.3320 C   0  0  0  0  0  0
   -6.2168  -47.2461   10.1000 C   0  0  0  0  0  0
   -5.2196  -46.2487   10.0288 C   0  0  0  0  0  0
   -4.8494  -45.5485   11.1926 C   0  0  0  0  0  0
   -5.4814  -45.8040   12.4191 C   0  0  0  0  0  0
   -6.9861  -46.9699   13.4221 H   0  0  0  0  0  0
   -7.6310  -48.2551   11.3991 H   0  0  0  0  0  0
   -6.5317  -47.7605    9.2043 H   0  0  0  0  0  0
   -4.0945  -44.7739   11.1471 H   0  0  0  0  0  0
   -5.2063  -45.2481   13.3028 H   0  0  0  0  0  0
  1  2  2  0  0  0
  2  3  1  0  0  0
  2  4  1  0  0  0
  4 11  2  0  0  0
  4 34  1  0  0  0
  5  6  1  0  0  0
  5 10  2  0  0  0
  5 34  1  0  0  0
  6  7  2  0  0  0
  6 22  1  0  0  0
  7  8  1  0  0  0
  7 23  1  0  0  0
  8  9  2  0  0  0
  8 24  1  0  0  0
  9 10  1  0  0  0
  9 25  1  0  0  0
 10 11  1  0  0  0
 11 12  1  0  0  0
 12 26  1  0  0  0
 12 27  1  0  0  0
 12 13  1  0  0  0
 13 14  1  0  0  0
 13 28  1  0  0  0
 13 29  1  0  0  0
 14 15  1  0  0  0
 14 30  1  0  0  0
 14 31  1  0  0  0
 15 16  1  0  0  0
 16 17  1  0  0  0
 16 21  2  0  0  0
 17 18  2  0  0  0
 17 32  1  0  0  0
 18 19  1  0  0  0
 18 41  1  0  0  0
 19 20  2  0  0  0
 19 37  1  0  0  0
 20 21  1  0  0  0
 20 36  1  0  0  0
 21 33  1  0  0  0
 34 35  1  0  0  0
 38 39  2  0  0  0
 38 43  1  0  0  0
 38 44  1  0  0  0
 39 40  1  0  0  0
 39 45  1  0  0  0
 40 41  2  0  0  0
 40 46  1  0  0  0
 41 42  1  0  0  0
 42 43  2  0  0  0
 42 47  1  0  0  0
 43 48  1  0  0  0
M  CHG  1   3  -1
M  END
> <s_m_entry_id>
166

> <s_m_entry_name>
MCL1_38.1

> <r_m_Molecular_weight>
370.4319

> <s_m_Source_Path>
C:\Users\yujiethinkpad\Desktop\05A\MCL1\original

> <s_m_Source_File>
MCL1_38.sdf

> <r_user_dG.exp>
-7.01900763427615

> <s_fepmapper_entryid>
11

> <i_fepmapper_bias>
0

> <i_fepmapper_affinity>
1

> <r_fepmapper_exp_dG>
-7.01900763428

> <i_fepmapper_unit>
1

> <i_m_Source_File_Index>
1

> <s_m_job_name>
align_ligands_1

> <s_i_glide_gridfile>
glide-grid_MCL1

> <i_i_glide_lignum>
22

> <i_i_glide_rotatable_bonds>
7

> <r_i_docking_score>
-8.43581628726871

> <r_i_glide_ligand_efficiency>
-0.30127915311674

> <r_i_glide_ligand_efficiency_sa>
-0.914860952794163

> <r_i_glide_ligand_efficiency_ln>
-1.94723408543046

> <r_i_glide_gscore>
-8.43581628726871

> <r_i_glide_lipo>
-5.78195008146452

> <r_i_glide_hbond>
-0.112246331464747

> <r_i_glide_metal>
0

> <r_i_glide_rewards>
-1.78101267836725

> <r_i_glide_evdw>
-33.432445526123

> <r_i_glide_ecoul>
0.483644187450409

> <r_i_glide_erotb>
0.843599049903382

> <r_i_glide_esite>
-0.00513059768698735

> <r_i_glide_emodel>
-19.7283902884886

> <r_i_glide_energy>
-32.9488013386726

> <r_i_glide_einternal>
7.39488410949707

> <i_i_glide_confnum>
124

> <i_i_glide_posenum>
178

> <r_i_glide_eff_state_penalty>
0

> <r_glide_shape_similarity>
0.662128031253815

> <i_phase_Input_Structure_Number>
14

> <i_phase_Structure_Number>
14

> <r_phase_Similarity_to_Reference>
0.782399283456047

> <i_phase_Reference_Structure>
1

> <s_phase_Alignment_Method>
snapped core

> <s_phase_Alignment_Reason>


> <s_phase_Core_SMARTS>
a1aaaaa1AAAAa(aa2)a(a23)aaaa3

> <s_f3d_frozen_atoms>
17 18 19 20 21 16 15 14 13 12 11 4 34 10 5 9 8 7 6 32 37 36 33 30 31 28 29 26 27 35 25 24 23 22

> <s_m_subgroup_title>
align_ligands_1->glide-dock_SP_redock_4245_lib1

> <s_m_subgroupid>
align_ligands_1->glide-dock_SP_redock_4245_lib11

> <b_m_subgroup_collapsed>
0

$$$$
