40
                    3D
 Schrodinger Suite 2021-2.
 49 52  0  0  1  0            999 V2000
    3.0900  -47.2504    6.7747 O   0  0  0  0  0  0
    3.0863  -48.4855    6.5974 C   0  0  0  0  0  0
    4.1511  -49.1309    6.6518 O   0  5  0  0  0  0
    1.7953  -49.1810    6.3522 C   0  0  0  0  0  0
    0.0202  -50.9573    6.3447 C   0  0  0  0  0  0
   -0.8407  -52.0632    6.4168 C   0  0  0  0  0  0
   -2.2170  -51.8957    6.1858 C   0  0  0  0  0  0
   -2.7295  -50.6268    5.8842 C   0  0  0  0  0  0
   -1.8581  -49.5384    5.7909 C   0  0  0  0  0  0
   -0.4683  -49.6764    6.0068 C   0  0  0  0  0  0
    0.5734  -48.7000    5.9545 C   0  0  0  0  0  0
    0.2448  -47.3095    5.6230 C   0  0  0  0  0  0
   -0.1713  -46.7848    6.9543 C   0  0  0  0  0  0
   -0.7090  -45.4534    6.9809 C   0  0  0  0  0  0
   -1.9563  -45.4326    6.3519 O   0  0  0  0  0  0
   -3.0626  -45.1684    7.0920 C   0  0  0  0  0  0
   -3.9523  -44.2831    6.4818 C   0  0  0  0  0  0
   -5.2664  -44.1936    6.9412 C   0  0  0  0  0  0
   -5.6579  -44.8869    8.0913 C   0  0  0  0  0  0
   -4.7420  -45.7252    8.7536 C   0  0  0  0  0  0
   -3.4344  -45.8754    8.2484 C   0  0  0  0  0  0
   -0.4538  -53.0340    6.6895 H   0  0  0  0  0  0
   -2.8836  -52.7442    6.2451 H   0  0  0  0  0  0
   -3.7838  -50.5005    5.6777 H   0  0  0  0  0  0
   -2.2783  -48.5724    5.5708 H   0  0  0  0  0  0
    1.0973  -46.8232    5.1504 H   0  0  0  0  0  0
   -0.5237  -47.3012    4.8547 H   0  0  0  0  0  0
   -0.8550  -47.4549    7.4723 H   0  0  0  0  0  0
    0.7347  -46.7871    7.5475 H   0  0  0  0  0  0
   -0.7059  -45.0487    7.9712 H   0  0  0  0  0  0
   -0.0718  -44.7629    6.4297 H   0  0  0  0  0  0
   -3.6779  -43.6515    5.6715 H   0  0  0  0  0  0
   -2.7237  -46.5148    8.7412 H   0  0  0  0  0  0
    1.7525  -50.8931    6.6326 N   0  0  0  0  0  0
    2.5912  -51.3986    6.8965 H   0  0  0  0  0  0
   -5.0455  -46.2572    9.6379 H   0  0  0  0  0  0
   -6.6647  -44.8028    8.4771 H   0  0  0  0  0  0
   -6.1295  -43.4531    6.2174 O   0  0  0  0  0  0
   -7.3313  -45.2776    2.6986 C   0  0  0  0  0  0
   -6.0955  -44.5881    2.6960 C   0  0  0  0  0  0
   -5.6554  -43.9491    3.8691 C   0  0  0  0  0  0
   -6.4614  -44.0231    5.0372 C   0  0  0  0  0  0
   -7.6579  -44.7407    5.0515 C   0  0  0  0  0  0
   -8.1154  -45.3440    3.8686 C   0  0  0  0  0  0
   -7.7105  -45.7588    1.8108 H   0  0  0  0  0  0
   -5.4970  -44.5432    1.7984 H   0  0  0  0  0  0
   -4.7306  -43.3992    3.8396 H   0  0  0  0  0  0
   -8.2410  -44.7982    5.9585 H   0  0  0  0  0  0
   -9.0617  -45.8621    3.8528 H   0  0  0  0  0  0
  1  2  2  0  0  0
  2  3  1  0  0  0
  2  4  1  0  0  0
  4 11  2  0  0  0
  4 34  1  0  0  0
  5  6  1  0  0  0
  5 10  2  0  0  0
  5 34  1  0  0  0
  6  7  2  0  0  0
  6 22  1  0  0  0
  7  8  1  0  0  0
  7 23  1  0  0  0
  8  9  2  0  0  0
  8 24  1  0  0  0
  9 10  1  0  0  0
  9 25  1  0  0  0
 10 11  1  0  0  0
 11 12  1  0  0  0
 12 26  1  0  0  0
 12 27  1  0  0  0
 12 13  1  0  0  0
 13 14  1  0  0  0
 13 28  1  0  0  0
 13 29  1  0  0  0
 14 15  1  0  0  0
 14 30  1  0  0  0
 14 31  1  0  0  0
 15 16  1  0  0  0
 16 17  1  0  0  0
 16 21  2  0  0  0
 17 18  2  0  0  0
 17 32  1  0  0  0
 18 19  1  0  0  0
 18 38  1  0  0  0
 19 20  2  0  0  0
 19 37  1  0  0  0
 20 21  1  0  0  0
 20 36  1  0  0  0
 21 33  1  0  0  0
 34 35  1  0  0  0
 38 42  1  0  0  0
 39 40  2  0  0  0
 39 44  1  0  0  0
 39 45  1  0  0  0
 40 41  1  0  0  0
 40 46  1  0  0  0
 41 42  2  0  0  0
 41 47  1  0  0  0
 42 43  1  0  0  0
 43 44  2  0  0  0
 43 48  1  0  0  0
 44 49  1  0  0  0
M  CHG  1   3  -1
M  END
> <s_m_entry_id>
164

> <s_m_entry_name>
MCL1_40.1

> <r_m_Molecular_weight>
386.4313

> <s_m_Source_Path>
C:\Users\yujiethinkpad\Desktop\05A\MCL1\original

> <s_m_Source_File>
MCL1_40.sdf

> <r_user_dG.exp>
-7.25302544244784

> <s_fepmapper_entryid>
23

> <i_fepmapper_bias>
0

> <i_fepmapper_affinity>
1

> <r_fepmapper_exp_dG>
-7.25302544245

> <i_fepmapper_unit>
1

> <i_m_Source_File_Index>
1

> <s_m_job_name>
align_ligands_1

> <s_i_glide_gridfile>
glide-grid_MCL1

> <i_i_glide_lignum>
24

> <i_i_glide_rotatable_bonds>
8

> <r_i_docking_score>
-8.61839244153923

> <r_i_glide_ligand_efficiency>
-0.297185946259973

> <r_i_glide_ligand_efficiency_sa>
-0.913049382027051

> <r_i_glide_ligand_efficiency_ln>
-1.97339332553662

> <r_i_glide_gscore>
-8.61839244153923

> <r_i_glide_lipo>
-6.03320675499997

> <r_i_glide_hbond>
-0.2

> <r_i_glide_metal>
0

> <r_i_glide_rewards>
-1.61979465723584

> <r_i_glide_evdw>
-27.3298416137695

> <r_i_glide_ecoul>
-1.94585025310516

> <r_i_glide_erotb>
0.912416869947118

> <r_i_glide_esite>
-0.0194382805962892

> <r_i_glide_emodel>
-28.6610312064638

> <r_i_glide_energy>
-29.2756918668747

> <r_i_glide_einternal>
9.27027606964111

> <i_i_glide_confnum>
39

> <i_i_glide_posenum>
32

> <r_i_glide_eff_state_penalty>
0

> <r_glide_shape_similarity>
0.749656856060028

> <i_phase_Input_Structure_Number>
12

> <i_phase_Structure_Number>
12

> <r_phase_Similarity_to_Reference>
0.761048497743745

> <i_phase_Reference_Structure>
1

> <s_phase_Alignment_Method>
snapped core

> <s_phase_Alignment_Reason>


> <s_phase_Core_SMARTS>
a1aaaaa1AAAAa(aa2)a(a23)aaaa3

> <s_f3d_frozen_atoms>
21 20 19 18 17 16 15 14 13 12 11 4 34 10 5 9 8 7 6 33 36 37 32 30 31 28 29 26 27 35 25 24 23 22

> <s_m_subgroup_title>
align_ligands_1->glide-dock_SP_redock_4245_lib1

> <s_m_subgroupid>
align_ligands_1->glide-dock_SP_redock_4245_lib11

> <b_m_subgroup_collapsed>
0

$$$$
