48
                    3D
 Schrodinger Suite 2021-2.
 42 45  0  0  1  0            999 V2000
    3.0900  -47.2504    6.7747 O   0  0  0  0  0  0
    3.0863  -48.4855    6.5974 C   0  0  0  0  0  0
    4.1511  -49.1309    6.6518 O   0  5  0  0  0  0
    1.7953  -49.1810    6.3522 C   0  0  0  0  0  0
    0.0202  -50.9573    6.3447 C   0  0  0  0  0  0
   -0.8407  -52.0632    6.4168 C   0  0  0  0  0  0
   -2.2170  -51.8957    6.1858 C   0  0  0  0  0  0
   -2.7295  -50.6268    5.8842 C   0  0  0  0  0  0
   -1.8581  -49.5384    5.7909 C   0  0  0  0  0  0
   -0.4683  -49.6764    6.0068 C   0  0  0  0  0  0
    0.5734  -48.7000    5.9545 C   0  0  0  0  0  0
    0.2448  -47.3095    5.6230 C   0  0  0  0  0  0
   -0.1713  -46.7848    6.9543 C   0  0  0  0  0  0
   -0.7090  -45.4534    6.9809 C   0  0  0  0  0  0
   -1.9563  -45.4326    6.3519 O   0  0  0  0  0  0
   -3.0626  -45.1684    7.0920 C   0  0  0  0  0  0
   -5.6579  -44.8869    8.0913 C   0  0  0  0  0  0
   -5.2664  -44.1936    6.9412 C   0  0  0  0  0  0
   -3.9523  -44.2831    6.4818 C   0  0  0  0  0  0
   -0.4453  -53.0335    6.6828 H   0  0  0  0  0  0
   -2.8780  -52.7536    6.2385 H   0  0  0  0  0  0
   -3.7810  -50.5044    5.6768 H   0  0  0  0  0  0
   -2.2760  -48.5716    5.5390 H   0  0  0  0  0  0
    1.1030  -46.8303    5.1592 H   0  0  0  0  0  0
   -0.5194  -47.2984    4.8472 H   0  0  0  0  0  0
   -0.7440  -47.4671    7.5729 H   0  0  0  0  0  0
    0.7948  -46.7480    7.3923 H   0  0  0  0  0  0
   -0.8135  -45.1096    8.0093 H   0  0  0  0  0  0
    0.0273  -44.7929    6.5388 H   0  0  0  0  0  0
   -3.6505  -43.6989    5.6281 H   0  0  0  0  0  0
   -6.0061  -43.6420    6.3701 H   0  0  0  0  0  0
   -6.6158  -44.7257    8.5452 H   0  0  0  0  0  0
    1.7525  -50.8931    6.6326 N   0  0  0  0  0  0
    2.5864  -51.3954    6.9146 H   0  0  0  0  0  0
   -3.5963  -47.0077   10.2637 C   0  0  0  0  0  0
   -4.8379  -46.4549    9.9333 N   0  0  0  0  0  0
   -4.7420  -45.7252    8.7536 C   0  0  0  0  0  0
   -3.4344  -45.8754    8.2484 C   0  0  0  0  0  0
   -2.7412  -46.7822    9.1398 C   0  0  0  0  0  0
   -5.6530  -46.5054   10.5438 H   0  0  0  0  0  0
   -1.7199  -47.1147    9.0092 H   0  0  0  0  0  0
   -3.4695  -47.5619   11.1757 H   0  0  0  0  0  0
  1  2  2  0  0  0
  2  3  1  0  0  0
  2  4  1  0  0  0
  4 11  2  0  0  0
  4 33  1  0  0  0
  5  6  1  0  0  0
  5 10  2  0  0  0
  5 33  1  0  0  0
  6  7  2  0  0  0
  6 20  1  0  0  0
  7  8  1  0  0  0
  7 21  1  0  0  0
  8  9  2  0  0  0
  8 22  1  0  0  0
  9 10  1  0  0  0
  9 23  1  0  0  0
 10 11  1  0  0  0
 11 12  1  0  0  0
 12 24  1  0  0  0
 12 25  1  0  0  0
 12 13  1  0  0  0
 13 14  1  0  0  0
 13 26  1  0  0  0
 13 27  1  0  0  0
 14 15  1  0  0  0
 14 28  1  0  0  0
 14 29  1  0  0  0
 15 16  1  0  0  0
 16 19  2  0  0  0
 16 38  1  0  0  0
 17 18  2  0  0  0
 17 32  1  0  0  0
 17 37  1  0  0  0
 18 19  1  0  0  0
 18 31  1  0  0  0
 19 30  1  0  0  0
 33 34  1  0  0  0
 35 36  1  0  0  0
 35 39  2  0  0  0
 35 42  1  0  0  0
 36 37  1  0  0  0
 36 40  1  0  0  0
 37 38  2  0  0  0
 38 39  1  0  0  0
 39 41  1  0  0  0
M  CHG  1   3  -1
M  END
> <s_m_entry_id>
187

> <s_m_entry_name>
MCL1_48.1

> <r_m_Molecular_weight>
333.37009

> <s_m_Source_Path>
C:\Users\yujiethinkpad\Desktop\05A\MCL1\original

> <s_m_Source_File>
MCL1_48.sdf

> <r_user_dG.exp>
-6.6626190630157

> <s_fepmapper_entryid>
3

> <i_fepmapper_bias>
0

> <i_fepmapper_affinity>
1

> <r_fepmapper_exp_dG>
-6.66261906302

> <i_fepmapper_unit>
1

> <i_m_Source_File_Index>
1

> <s_m_job_name>
align_ligands_1

> <s_i_glide_gridfile>
glide-grid_MCL1

> <i_i_glide_lignum>
32

> <i_i_glide_rotatable_bonds>
6

> <r_i_docking_score>
-7.42581230522843

> <r_i_glide_ligand_efficiency>
-0.297032492209137

> <r_i_glide_ligand_efficiency_sa>
-0.868528275113197

> <r_i_glide_ligand_efficiency_ln>
-1.76014004997656

> <r_i_glide_gscore>
-7.42581230522843

> <r_i_glide_lipo>
-4.61839375917239

> <r_i_glide_hbond>
-0.2

> <r_i_glide_metal>
0

> <r_i_glide_rewards>
-1.43702638573978

> <r_i_glide_evdw>
-29.2659912109375

> <r_i_glide_ecoul>
-2.42971062660217

> <r_i_glide_erotb>
0.678363432142764

> <r_i_glide_esite>
-0.0209994379218217

> <r_i_glide_emodel>
-39.6464691729942

> <r_i_glide_energy>
-31.6957018375397

> <r_i_glide_einternal>
4.57946586608887

> <i_i_glide_confnum>
36

> <i_i_glide_posenum>
148

> <r_i_glide_eff_state_penalty>
0

> <r_glide_shape_similarity>
0.883851945400238

> <i_phase_Input_Structure_Number>
35

> <i_phase_Structure_Number>
35

> <r_phase_Similarity_to_Reference>
0.885508039115602

> <i_phase_Reference_Structure>
1

> <s_phase_Alignment_Method>
snapped core

> <s_phase_Alignment_Reason>


> <s_phase_Core_SMARTS>
a1aaaaa1AAAAa(aa2)a(a23)aaaa3

> <s_f3d_frozen_atoms>
38 37 17 18 19 16 15 14 13 12 11 4 33 10 5 9 8 7 6 32 31 30 28 29 26 27 24 25 34 23 22 21 20

> <s_m_subgroup_title>
align_ligands_1->glide-dock_SP_redock_4245_lib1

> <s_m_subgroupid>
align_ligands_1->glide-dock_SP_redock_4245_lib11

> <b_m_subgroup_collapsed>
0

$$$$
