61
                    3D
 Schrodinger Suite 2021-2.
 43 45  0  0  1  0            999 V2000
    3.0900  -47.2504    6.7747 O   0  0  0  0  0  0
    3.0863  -48.4855    6.5974 C   0  0  0  0  0  0
    4.1511  -49.1309    6.6518 O   0  5  0  0  0  0
    1.7953  -49.1810    6.3522 C   0  0  0  0  0  0
    1.7525  -50.8931    6.6326 S   0  0  0  0  0  0
    0.0202  -50.9573    6.3447 C   0  0  0  0  0  0
   -0.8407  -52.0632    6.4168 C   0  0  0  0  0  0
   -2.2170  -51.8957    6.1858 C   0  0  0  0  0  0
   -2.7295  -50.6268    5.8842 C   0  0  0  0  0  0
   -1.8581  -49.5384    5.7909 C   0  0  0  0  0  0
   -0.4683  -49.6764    6.0068 C   0  0  0  0  0  0
    0.5734  -48.7000    5.9545 C   0  0  0  0  0  0
    0.2448  -47.3095    5.6230 C   0  0  0  0  0  0
   -0.1713  -46.7848    6.9543 C   0  0  0  0  0  0
   -0.7090  -45.4534    6.9809 C   0  0  0  0  0  0
   -1.9563  -45.4326    6.3519 O   0  0  0  0  0  0
   -3.0626  -45.1684    7.0920 C   0  0  0  0  0  0
   -3.9523  -44.2831    6.4818 C   0  0  0  0  0  0
   -5.2664  -44.1936    6.9412 C   0  0  0  0  0  0
   -6.2552  -43.4525    6.0702 C   0  0  0  0  0  0
   -5.6579  -44.8869    8.0913 C   0  0  0  0  0  0
   -7.2744  -44.6961    8.6464 Cl  0  0  0  0  0  0
   -4.7420  -45.7252    8.7536 C   0  0  0  0  0  0
   -5.1804  -46.4948    9.9657 C   0  0  0  0  0  0
   -3.4344  -45.8754    8.2484 C   0  0  0  0  0  0
   -0.4448  -53.0310    6.6878 H   0  0  0  0  0  0
   -2.8885  -52.7414    6.2272 H   0  0  0  0  0  0
   -3.7749  -50.5095    5.6350 H   0  0  0  0  0  0
   -2.6037  -48.0186    5.5311 Cl  0  0  0  0  0  0
   -0.4609  -47.2326    4.8045 H   0  0  0  0  0  0
    1.1338  -46.8302    5.2100 H   0  0  0  0  0  0
    0.6815  -46.8225    7.6292 H   0  0  0  0  0  0
   -0.9246  -47.4229    7.4070 H   0  0  0  0  0  0
   -0.0034  -44.7750    6.4944 H   0  0  0  0  0  0
   -0.8682  -45.1429    8.0093 H   0  0  0  0  0  0
   -3.6293  -43.7201    5.6176 H   0  0  0  0  0  0
   -5.9628  -43.5320    5.0223 H   0  0  0  0  0  0
   -6.3131  -42.3938    6.2986 H   0  0  0  0  0  0
   -7.2584  -43.8734    6.1342 H   0  0  0  0  0  0
   -4.3741  -47.1282   10.3360 H   0  0  0  0  0  0
   -5.4774  -45.8080   10.7581 H   0  0  0  0  0  0
   -6.0276  -47.1355    9.7269 H   0  0  0  0  0  0
   -2.7637  -46.5780    8.7174 H   0  0  0  0  0  0
  1  2  2  0  0  0
  2  3  1  0  0  0
  2  4  1  0  0  0
  4  5  1  0  0  0
  4 12  2  0  0  0
  5  6  1  0  0  0
  6  7  1  0  0  0
  6 11  2  0  0  0
  7  8  2  0  0  0
  7 26  1  0  0  0
  8  9  1  0  0  0
  8 27  1  0  0  0
  9 10  2  0  0  0
  9 28  1  0  0  0
 10 11  1  0  0  0
 10 29  1  0  0  0
 11 12  1  0  0  0
 12 13  1  0  0  0
 13 30  1  0  0  0
 13 31  1  0  0  0
 13 14  1  0  0  0
 14 15  1  0  0  0
 14 32  1  0  0  0
 14 33  1  0  0  0
 15 16  1  0  0  0
 15 34  1  0  0  0
 15 35  1  0  0  0
 16 17  1  0  0  0
 17 18  1  0  0  0
 17 25  2  0  0  0
 18 19  2  0  0  0
 18 36  1  0  0  0
 19 20  1  0  0  0
 19 21  1  0  0  0
 20 37  1  0  0  0
 20 38  1  0  0  0
 20 39  1  0  0  0
 21 22  1  0  0  0
 21 23  2  0  0  0
 23 24  1  0  0  0
 23 25  1  0  0  0
 24 40  1  0  0  0
 24 41  1  0  0  0
 24 42  1  0  0  0
 25 43  1  0  0  0
M  CHG  1   3  -1
M  END
> <s_m_entry_id>
183

> <s_m_entry_name>
MCL1_61.1

> <r_m_Molecular_weight>
408.32669

> <s_m_Source_Path>
C:\Users\yujiethinkpad\Desktop\05A\MCL1\original

> <s_m_Source_File>
MCL1_61.sdf

> <r_user_dG.exp>
-8.07943709994224

> <s_fepmapper_entryid>
25

> <i_fepmapper_bias>
0

> <i_fepmapper_affinity>
1

> <r_fepmapper_exp_dG>
-8.07943709994

> <i_fepmapper_unit>
1

> <i_m_Source_File_Index>
1

> <s_m_job_name>
align_ligands_1

> <s_i_glide_gridfile>
glide-grid_MCL1

> <i_i_glide_lignum>
1

> <i_i_glide_rotatable_bonds>
6

> <r_i_docking_score>
-7.931208517404

> <r_i_glide_ligand_efficiency>
-0.305046481438616

> <r_i_glide_ligand_efficiency_sa>
-0.903699000961954

> <r_i_glide_ligand_efficiency_ln>
-1.86261829589454

> <r_i_glide_gscore>
-7.931208517404

> <r_i_glide_lipo>
-5.11929318812978

> <r_i_glide_hbond>
-0.227611224803746

> <r_i_glide_metal>
0

> <r_i_glide_rewards>
-1.44844209327461

> <r_i_glide_evdw>
-26.3987655639648

> <r_i_glide_ecoul>
-2.44428873062134

> <r_i_glide_erotb>
0.590202387595814

> <r_i_glide_esite>
-0.0394828110002416

> <r_i_glide_emodel>
-42.6709994174783

> <r_i_glide_energy>
-28.8430542945862

> <r_i_glide_einternal>
10.0162334442139

> <i_i_glide_confnum>
218

> <i_i_glide_posenum>
305

> <r_i_glide_eff_state_penalty>
0

> <r_glide_shape_similarity>
0.93768298625946

> <i_phase_Input_Structure_Number>
31

> <i_phase_Structure_Number>
31

> <r_phase_Similarity_to_Reference>
0.978625700384722

> <i_phase_Reference_Structure>
1

> <s_phase_Alignment_Method>
snapped core

> <s_phase_Alignment_Reason>


> <s_phase_Core_SMARTS>
a1aaaaa1AAAAa(aa2)a(a23)aaaa3

> <s_f3d_frozen_atoms>
25 23 21 19 18 17 16 15 14 13 12 4 5 11 6 10 9 8 7 43 22 36 34 35 32 33 30 31 29 28 27 26

> <s_m_subgroup_title>
align_ligands_1->glide-dock_SP_redock_4245_lib1

> <s_m_subgroupid>
align_ligands_1->glide-dock_SP_redock_4245_lib11

> <b_m_subgroup_collapsed>
0

$$$$
