/home/yujie/leadopt/data/result/selection/LRRK2/lig_11.sdf:1
                    3D
 Schrodinger Suite 2020-3.
 51 56  0  0  1  0            999 V2000
    9.5078   -6.2593   15.1415 N   0  0  0  0  0  0
    8.3879   -6.0774   15.3709 C   0  0  0  0  0  0
    6.9594   -5.8440   15.6707 C   0  0  2  0  0  0
    6.0604   -7.0345   15.3889 C   0  0  0  0  0  0
    6.2174   -8.5156   15.2006 C   0  0  0  0  0  0
    5.1377   -7.9798   16.1208 C   0  0  0  0  0  0
    5.9818   -5.8374   14.4941 C   0  0  0  0  0  0
    6.6867   -4.8535   16.8055 C   0  0  0  0  0  0
    5.4736   -4.8994   17.5012 C   0  0  0  0  0  0
    5.1304   -3.8841   18.4166 C   0  0  0  0  0  0
    6.0489   -2.8230   18.6508 C   0  0  0  0  0  0
    7.3121   -2.8317   18.0143 C   0  0  0  0  0  0
    7.6066   -3.8372   17.0952 C   0  0  0  0  0  0
    5.5787   -1.7879   19.4854 C   0  0  0  0  0  0
    4.3333   -1.7623   20.0151 N   0  0  0  0  0  0
    3.5334   -2.8164   19.7268 C   0  0  0  0  0  0
    2.2261   -2.7156   20.2168 N   0  0  0  0  0  0
    1.1408   -3.5361   20.0043 C   0  0  0  0  0  0
   -0.0661   -3.5015   20.6883 C   0  0  0  0  0  0
   -0.5841   -2.4783   21.9749 Cl  0  0  0  0  0  0
   -0.8581   -4.4945   20.1555 N   0  0  0  0  0  0
   -2.2120   -4.9058   20.5856 C   0  0  0  0  0  0
   -3.0951   -5.3075   19.3722 C   0  0  0  0  0  0
   -4.4038   -5.9689   19.8364 C   0  0  0  0  0  0
   -4.1008   -7.0820   20.6760 O   0  0  0  0  0  0
   -3.4311   -6.7283   21.8845 C   0  0  0  0  0  0
   -2.0659   -6.0952   21.5617 C   0  0  0  0  0  0
   -0.2163   -5.1668   19.1865 N   0  0  0  0  0  0
    0.9500   -4.5815   19.0834 C   0  0  0  0  0  0
    3.8911   -3.8953   18.9829 N   0  0  0  0  0  0
    7.1176   -8.9644   15.6165 H   0  0  0  0  0  0
    5.9349   -8.9511   14.2403 H   0  0  0  0  0  0
    4.0927   -8.0280   15.8102 H   0  0  0  0  0  0
    5.2555   -8.1044   17.1969 H   0  0  0  0  0  0
    6.3325   -5.9504   13.4689 H   0  0  0  0  0  0
    5.0823   -5.2201   14.5457 H   0  0  0  0  0  0
    4.7405   -5.6587   17.2897 H   0  0  0  0  0  0
    8.0178   -2.0341   18.1999 H   0  0  0  0  0  0
    8.5516   -3.7964   16.5727 H   0  0  0  0  0  0
    6.2266   -0.9539   19.7161 H   0  0  0  0  0  0
    2.0920   -1.8661   20.7411 H   0  0  0  0  0  0
   -2.6460   -4.0332   21.0771 H   0  0  0  0  0  0
   -3.3663   -4.4101   18.8128 H   0  0  0  0  0  0
   -2.5761   -5.9482   18.6604 H   0  0  0  0  0  0
   -5.0399   -5.2586   20.3648 H   0  0  0  0  0  0
   -4.9744   -6.3190   18.9753 H   0  0  0  0  0  0
   -4.0510   -6.0466   22.4705 H   0  0  0  0  0  0
   -3.2947   -7.6257   22.4890 H   0  0  0  0  0  0
   -1.3578   -6.8369   21.1909 H   0  0  0  0  0  0
   -1.6484   -5.7333   22.5036 H   0  0  0  0  0  0
    1.6633   -4.9282   18.3504 H   0  0  0  0  0  0
  1  2  3  0  0  0
  2  3  1  0  0  0
  3  7  1  0  0  0
  3  4  1  0  0  0
  3  8  1  0  0  0
  4  6  1  0  0  0
  4  5  1  0  0  0
  4  7  1  0  0  0
  5  6  1  0  0  0
  5 31  1  0  0  0
  5 32  1  0  0  0
  6 33  1  0  0  0
  6 34  1  0  0  0
  7 35  1  0  0  0
  7 36  1  0  0  0
  8 13  1  0  0  0
  8  9  2  0  0  0
  9 10  1  0  0  0
  9 37  1  0  0  0
 10 30  1  0  0  0
 10 11  2  0  0  0
 11 12  1  0  0  0
 11 14  1  0  0  0
 12 13  2  0  0  0
 12 38  1  0  0  0
 13 39  1  0  0  0
 14 15  2  0  0  0
 14 40  1  0  0  0
 15 16  1  0  0  0
 16 17  1  0  0  0
 16 30  2  0  0  0
 17 18  1  0  0  0
 17 41  1  0  0  0
 18 29  1  0  0  0
 18 19  2  0  0  0
 19 20  1  0  0  0
 19 21  1  0  0  0
 21 22  1  0  0  0
 21 28  1  0  0  0
 22 27  1  0  0  0
 22 23  1  0  0  0
 22 42  1  0  0  0
 23 24  1  0  0  0
 23 43  1  0  0  0
 23 44  1  0  0  0
 24 25  1  0  0  0
 24 45  1  0  0  0
 24 46  1  0  0  0
 25 26  1  0  0  0
 26 27  1  0  0  0
 26 47  1  0  0  0
 26 48  1  0  0  0
 27 49  1  0  0  0
 27 50  1  0  0  0
 28 29  2  0  0  0
 29 51  1  0  0  0
M  END
> <s_m_source_file>
/home/yujie/leadopt/data/result/selection/LRRK2/lig_11.sdf

> <i_m_source_file_index>
1

> <i_lp_mmshare_version>
51139

> <i_f3d_flags>
0

> <s_epik_input>
W0NIMl0xW0NIMl1DMTJbQ0BAXShDI04pKFtDSDJdMiljKFtjSF0zKVtjSF1bY0hdYyhjMzQpW2NIXW5jKG40KVtOSF1jNWMoQ2wpbihuW2NIXTUpW0NIXTZbQ0gyXVtDSDJdT1tDSDJdW0NIMl02

> <s_epik_cmdline>
J2VwaWtfcHl0aG9uJywgJy1waHQnLCAnMi4wJywgJy1waCcsICc3LjAnLCAnLXRuJywgJzgnLCAnLW1hJywgJzIwMCcsICctaW1hZScsICc8aW5maWxlLm1hZT4nLCAnLW9tYWUnLCAnPG91dGZpbGUubWFlPic=

> <r_lp_tautomer_probability>
1

> <r_epik_Ionization_Penalty>
  0.0001

> <r_epik_Ionization_Penalty_Charging>
  0.0000

> <r_epik_Ionization_Penalty_Neutral>
  0.0001

> <r_epik_State_Penalty>
 -0.0000

> <r_epik_Charging_Adjusted_Penalty>
0

> <i_epik_Tot_Q>
0

> <i_epik_Tot_abs_Q>
0

> <s_lp_Force_Field>
OPLS3e

> <r_lp_Energy>
20.2451

> <b_lp_Chiralities_Consistent>
1

> <s_lp_Variant>
/home/yujie/leadopt/data/result/selection/LRRK2/lig_11.sdf:1-1

> <s_i_glide_gridfile>
glide-grid_LRRK2

> <i_i_glide_lignum>
1

> <i_i_glide_rotatable_bonds>
4

> <r_i_docking_score>
-9.09529627752046

> <r_i_glide_ligand_efficiency>
-0.303176542584015

> <r_i_glide_ligand_efficiency_sa>
-0.942040007091736

> <r_i_glide_ligand_efficiency_ln>
-2.06655041544298

> <r_i_glide_gscore>
-9.09529627752046

> <r_i_glide_lipo>
-3.86097975666918

> <r_i_glide_hbond>
-0.233599625319274

> <r_i_glide_metal>
-0

> <r_i_glide_rewards>
-2.55559315734405

> <r_i_glide_evdw>
-46.578742980957

> <r_i_glide_ecoul>
-3.7545473575592

> <r_i_glide_erotb>
0.446995514493779

> <r_i_glide_esite>
0

> <r_i_glide_emodel>
-76.5664475298406

> <r_i_glide_energy>
-50.3332903385162

> <r_i_glide_einternal>
2.68607115745544

> <i_i_glide_confnum>
23

> <i_i_glide_posenum>
65

> <r_i_glide_eff_state_penalty>
-0

$$$$
