/home/yujie/leadopt/data/result/selection/LRRK2/lig_10.sdf:1
                    3D
 Schrodinger Suite 2020-3.
 54 59  0  0  1  0            999 V2000
   -0.1987   -2.4155   21.9129 C   0  0  0  0  0  0
    0.1134   -3.3583   20.7670 C   0  0  0  0  0  0
   -0.7713   -4.3219   20.3201 N   0  0  0  0  0  0
   -2.1089   -4.6526   20.8585 C   0  0  0  0  0  0
   -3.1500   -4.7634   19.7103 C   0  0  0  0  0  0
   -4.4763   -5.3642   20.2086 C   0  0  0  0  0  0
   -4.2274   -6.6196   20.8414 O   0  0  0  0  0  0
   -3.4124   -6.5213   22.0054 C   0  0  0  0  0  0
   -2.0170   -5.9903   21.6320 C   0  0  0  0  0  0
   -0.2643   -5.0462   19.3107 N   0  0  0  0  0  0
    0.9175   -4.5336   19.0916 C   0  0  0  0  0  0
    1.2480   -3.4839   19.9665 C   0  0  0  0  0  0
    2.3965   -2.7202   20.0407 N   0  0  0  0  0  0
    3.6638   -2.9652   19.4854 C   0  0  0  0  0  0
    3.8786   -4.1214   18.8060 N   0  0  0  0  0  0
    5.0804   -4.2759   18.1885 C   0  0  0  0  0  0
    5.2786   -5.4005   17.3645 C   0  0  0  0  0  0
    6.4736   -5.5727   16.6546 C   0  0  0  0  0  0
    6.6488   -6.7689   15.7027 C   0  0  2  0  0  0
    5.6225   -6.9888   14.6089 C   0  0  0  0  0  0
    5.5455   -7.0392   13.1027 C   0  0  0  0  0  0
    4.5730   -6.1808   13.8860 C   0  0  0  0  0  0
    5.7097   -7.9768   15.7353 C   0  0  0  0  0  0
    8.0430   -7.1106   15.3545 C   0  0  0  0  0  0
    9.1325   -7.3842   15.0854 N   0  0  0  0  0  0
    7.4933   -4.6221   16.8051 C   0  0  0  0  0  0
    7.3337   -3.5003   17.6204 C   0  0  0  0  0  0
    6.1110   -3.3019   18.3026 C   0  0  0  0  0  0
    5.7914   -2.1685   19.0860 C   0  0  0  0  0  0
    4.5803   -1.9827   19.6729 N   0  0  0  0  0  0
    0.6423   -1.7622   22.1454 H   0  0  0  0  0  0
   -1.0444   -1.7647   21.6828 H   0  0  0  0  0  0
   -0.4416   -2.9595   22.8287 H   0  0  0  0  0  0
   -2.3797   -3.8330   21.5257 H   0  0  0  0  0  0
   -3.3726   -3.7623   19.3416 H   0  0  0  0  0  0
   -2.7727   -5.3204   18.8502 H   0  0  0  0  0  0
   -4.9815   -4.6857   20.9000 H   0  0  0  0  0  0
   -5.1589   -5.5188   19.3711 H   0  0  0  0  0  0
   -3.8902   -5.8774   22.7468 H   0  0  0  0  0  0
   -3.3271   -7.5097   22.4610 H   0  0  0  0  0  0
   -1.4382   -6.7408   21.0873 H   0  0  0  0  0  0
   -1.4731   -5.8226   22.5644 H   0  0  0  0  0  0
    1.5415   -4.9278   18.3034 H   0  0  0  0  0  0
    2.3740   -1.8541   20.5553 H   0  0  0  0  0  0
    4.4617   -6.0985   17.2628 H   0  0  0  0  0  0
    5.1849   -7.9554   12.6346 H   0  0  0  0  0  0
    6.3331   -6.5619   12.5163 H   0  0  0  0  0  0
    4.6805   -5.0940   13.8614 H   0  0  0  0  0  0
    3.5294   -6.4921   13.9696 H   0  0  0  0  0  0
    4.8819   -8.0418   16.4402 H   0  0  0  0  0  0
    6.1102   -8.9638   15.5040 H   0  0  0  0  0  0
    8.4244   -4.7341   16.2707 H   0  0  0  0  0  0
    8.1239   -2.7668   17.7081 H   0  0  0  0  0  0
    6.5212   -1.3811   19.2206 H   0  0  0  0  0  0
  1  2  1  0  0  0
  1 31  1  0  0  0
  1 32  1  0  0  0
  1 33  1  0  0  0
  2  3  1  0  0  0
  2 12  2  0  0  0
  3  4  1  0  0  0
  3 10  1  0  0  0
  4  9  1  0  0  0
  4  5  1  0  0  0
  4 34  1  0  0  0
  5  6  1  0  0  0
  5 35  1  0  0  0
  5 36  1  0  0  0
  6  7  1  0  0  0
  6 37  1  0  0  0
  6 38  1  0  0  0
  7  8  1  0  0  0
  8  9  1  0  0  0
  8 39  1  0  0  0
  8 40  1  0  0  0
  9 41  1  0  0  0
  9 42  1  0  0  0
 10 11  2  0  0  0
 11 12  1  0  0  0
 11 43  1  0  0  0
 12 13  1  0  0  0
 13 14  1  0  0  0
 13 44  1  0  0  0
 14 30  1  0  0  0
 14 15  2  0  0  0
 15 16  1  0  0  0
 16 17  1  0  0  0
 16 28  2  0  0  0
 17 18  2  0  0  0
 17 45  1  0  0  0
 18 19  1  0  0  0
 18 26  1  0  0  0
 19 23  1  0  0  0
 19 20  1  0  0  0
 19 24  1  0  0  0
 20 22  1  0  0  0
 20 21  1  0  0  0
 20 23  1  0  0  0
 21 22  1  0  0  0
 21 46  1  0  0  0
 21 47  1  0  0  0
 22 48  1  0  0  0
 22 49  1  0  0  0
 23 50  1  0  0  0
 23 51  1  0  0  0
 24 25  3  0  0  0
 26 27  2  0  0  0
 26 52  1  0  0  0
 27 28  1  0  0  0
 27 53  1  0  0  0
 28 29  1  0  0  0
 29 30  2  0  0  0
 29 54  1  0  0  0
M  END
> <s_m_source_file>
/home/yujie/leadopt/data/result/selection/LRRK2/lig_10.sdf

> <i_m_source_file_index>
1

> <i_lp_mmshare_version>
51139

> <i_f3d_flags>
0

> <s_epik_input>
W0NIMl0xW0NIMl1PW0NIMl1bQ0gyXVtDSF0xbihjMltDSDNdKW5bY0hdYzJbTkhdYyhuMyluW2NIXWMoYzM0KVtjSF1bY0hdYyhbY0hdNClbQ0BdKFtDSDJdNSkoQyNOKUM1NltDSDJdW0NIMl02

> <s_epik_cmdline>
J2VwaWtfcHl0aG9uJywgJy1waHQnLCAnMi4wJywgJy1waCcsICc3LjAnLCAnLXRuJywgJzgnLCAnLW1hJywgJzIwMCcsICctaW1hZScsICc8aW5maWxlLm1hZT4nLCAnLW9tYWUnLCAnPG91dGZpbGUubWFlPic=

> <r_epik_Ionization_Penalty>
  0.0027

> <r_epik_Ionization_Penalty_Charging>
  0.0000

> <r_epik_Ionization_Penalty_Neutral>
  0.0027

> <r_epik_State_Penalty>
  0.0018

> <r_epik_Charging_Adjusted_Penalty>
0.00178555

> <i_epik_Tot_Q>
0

> <i_epik_Tot_abs_Q>
0

> <s_lp_Force_Field>
OPLS3e

> <r_lp_Energy>
20.0686

> <b_lp_Chiralities_Consistent>
1

> <s_lp_Variant>
/home/yujie/leadopt/data/result/selection/LRRK2/lig_10.sdf:1-1

> <s_i_glide_gridfile>
glide-grid_LRRK2

> <i_i_glide_lignum>
1

> <i_i_glide_rotatable_bonds>
4

> <r_i_docking_score>
-8.46691512962546

> <r_i_glide_ligand_efficiency>
-0.282230504320849

> <r_i_glide_ligand_efficiency_sa>
-0.876955796203259

> <r_i_glide_ligand_efficiency_ln>
-1.92377537188024

> <r_i_glide_gscore>
-8.46870067962546

> <r_i_glide_lipo>
-3.47825268968046

> <r_i_glide_hbond>
0

> <r_i_glide_metal>
-0

> <r_i_glide_rewards>
-2.54108013217336

> <r_i_glide_evdw>
-47.6672096252441

> <r_i_glide_ecoul>
-3.69972610473633

> <r_i_glide_erotb>
0.488951539201019

> <r_i_glide_esite>
0

> <r_i_glide_emodel>
-76.4935055253096

> <r_i_glide_energy>
-51.3669357299805

> <r_i_glide_einternal>
2.008056640625

> <i_i_glide_confnum>
64

> <i_i_glide_posenum>
97

> <r_i_glide_eff_state_penalty>
0.00178555

$$$$
