/home/yujie/leadopt/data/result/selection/LRRK2/lig_20.sdf:1
                    3D
 Schrodinger Suite 2020-3.
 59 64  0  0  1  0            999 V2000
    9.1252   -4.3441   15.5906 Cl  0  0  0  0  0  0
    7.6662   -4.3361   16.5256 C   0  0  0  0  0  0
    7.5310   -3.3274   17.4802 C   0  0  0  0  0  0
    6.3316   -3.2052   18.2147 C   0  0  0  0  0  0
    5.3026   -4.1733   18.0519 C   0  0  0  0  0  0
    5.4813   -5.2086   17.1140 C   0  0  0  0  0  0
    6.6267   -5.2641   16.3099 C   0  0  0  0  0  0
    6.6416   -6.2554   15.1334 C   0  0  1  0  0  0
    6.6340   -7.7511   15.5298 C   0  0  1  0  0  0
    5.5333   -8.0669   16.2163 F   0  0  0  0  0  0
    6.6910   -8.6641   14.2848 C   0  0  0  0  0  0
    5.5059   -8.3515   13.3231 N   0  3  2  0  0  0
    5.5742   -9.2548   12.0549 C   0  0  1  0  0  0
    5.3752  -10.7489   12.2954 C   0  0  0  0  0  0
    3.9395  -11.0163   11.8712 C   0  0  0  0  0  0
    3.8170  -10.1965   10.7217 O   0  0  0  0  0  0
    4.5137   -8.9760   10.9598 C   0  0  0  0  0  0
    5.5350   -6.8567   12.9094 C   0  0  0  0  0  0
    5.5044   -5.9398   14.1380 C   0  0  0  0  0  0
    4.1151   -4.0774   18.7127 N   0  0  0  0  0  0
    3.9194   -2.9743   19.4869 C   0  0  0  0  0  0
    2.6703   -2.7487   20.0793 N   0  0  0  0  0  0
    1.4940   -3.4549   19.9706 C   0  0  0  0  0  0
    0.3569   -3.2680   20.7430 C   0  0  0  0  0  0
    0.0410   -2.1627   22.0280 Cl  0  0  0  0  0  0
   -0.5813   -4.1618   20.2863 N   0  0  0  0  0  0
   -1.9630   -4.3102   20.7511 C   0  0  1  0  0  0
   -2.9214   -5.3081   20.1078 C   0  0  0  0  0  0
   -2.3647   -5.5734   21.4787 C   0  0  0  0  0  0
   -3.1903   -5.4588   22.5177 F   0  0  0  0  0  0
   -1.4852   -6.5665   21.6023 F   0  0  0  0  0  0
   -0.1087   -4.9196   19.2869 N   0  0  0  0  0  0
    1.1175   -4.4930   19.0983 C   0  0  0  0  0  0
    4.8364   -2.0021   19.7174 N   0  0  0  0  0  0
    6.0292   -2.1392   19.0882 C   0  0  0  0  0  0
    8.3129   -2.5939   17.6154 H   0  0  0  0  0  0
    4.6667   -5.9029   16.9671 H   0  0  0  0  0  0
    7.5721   -6.0977   14.5935 H   0  0  0  0  0  0
    7.4914   -7.9634   16.1703 H   0  0  0  0  0  0
    7.6132   -8.5235   13.7155 H   0  0  0  0  0  0
    6.6219   -9.7085   14.5881 H   0  0  0  0  0  0
    6.5796   -9.0587   11.6694 H   0  0  0  0  0  0
    6.0579  -11.3243   11.6680 H   0  0  0  0  0  0
    5.5276  -11.0683   13.3237 H   0  0  0  0  0  0
    3.7549  -12.0622   11.6230 H   0  0  0  0  0  0
    3.1934  -10.7377   12.6181 H   0  0  0  0  0  0
    3.7649   -8.2514   11.2743 H   0  0  0  0  0  0
    4.9651   -8.6060   10.0382 H   0  0  0  0  0  0
    6.4265   -6.7120   12.2974 H   0  0  0  0  0  0
    4.6679   -6.6415   12.2860 H   0  0  0  0  0  0
    4.5253   -6.0249   14.6118 H   0  0  0  0  0  0
    5.6069   -4.9153   13.7753 H   0  0  0  0  0  0
    2.6684   -1.9034   20.6279 H   0  0  0  0  0  0
   -2.4006   -3.3667   21.0801 H   0  0  0  0  0  0
   -2.5892   -5.9360   19.2803 H   0  0  0  0  0  0
   -3.9740   -5.0404   20.0126 H   0  0  0  0  0  0
    1.7347   -4.9342   18.3300 H   0  0  0  0  0  0
    6.7603   -1.3635   19.2610 H   0  0  0  0  0  0
    4.6417   -8.5252   13.8196 H   0  0  0  0  0  0
  1  2  1  0  0  0
  2  7  1  0  0  0
  2  3  2  0  0  0
  3  4  1  0  0  0
  3 36  1  0  0  0
  4 35  1  0  0  0
  4  5  2  0  0  0
  5  6  1  0  0  0
  5 20  1  0  0  0
  6  7  2  0  0  0
  6 37  1  0  0  0
  7  8  1  0  0  0
  8 19  1  0  0  0
  8  9  1  0  0  0
  8 38  1  0  0  0
  9 10  1  0  0  0
  9 11  1  0  0  0
  9 39  1  0  0  0
 11 12  1  0  0  0
 11 40  1  0  0  0
 11 41  1  0  0  0
 12 13  1  0  0  0
 12 18  1  0  0  0
 12 59  1  0  0  0
 13 17  1  0  0  0
 13 14  1  0  0  0
 13 42  1  0  0  0
 14 15  1  0  0  0
 14 43  1  0  0  0
 14 44  1  0  0  0
 15 16  1  0  0  0
 15 45  1  0  0  0
 15 46  1  0  0  0
 16 17  1  0  0  0
 17 47  1  0  0  0
 17 48  1  0  0  0
 18 19  1  0  0  0
 18 49  1  0  0  0
 18 50  1  0  0  0
 19 51  1  0  0  0
 19 52  1  0  0  0
 20 21  2  0  0  0
 21 22  1  0  0  0
 21 34  1  0  0  0
 22 23  1  0  0  0
 22 53  1  0  0  0
 23 33  1  0  0  0
 23 24  2  0  0  0
 24 25  1  0  0  0
 24 26  1  0  0  0
 26 27  1  0  0  0
 26 32  1  0  0  0
 27 29  1  0  0  0
 27 28  1  0  0  0
 27 54  1  0  0  0
 28 29  1  0  0  0
 28 55  1  0  0  0
 28 56  1  0  0  0
 29 30  1  0  0  0
 29 31  1  0  0  0
 32 33  2  0  0  0
 33 57  1  0  0  0
 34 35  2  0  0  0
 35 58  1  0  0  0
M  CHG  1  12   1
M  END
> <s_m_source_file>
/home/yujie/leadopt/data/result/selection/LRRK2/lig_20.sdf

> <i_m_source_file_index>
1

> <i_lp_mmshare_version>
51139

> <i_f3d_flags>
0

> <s_epik_input>
W0NIMl0xT1tDSDJdW0NIMl1bQ0BASF0xTihbQ0gyXVtDSDJdMilbQ0gyXVtDQEhdKEYpW0NAQEhdMmMoYyhDbClbY0hdMylbY0hdYyhjMzQpbmMobltjSF00KVtOSF1jNWMoQ2wpbihbQ0BASF0oW0NIMl02KUM2KEYpRiluW2NIXTU=

> <s_epik_cmdline>
J2VwaWtfcHl0aG9uJywgJy1waHQnLCAnMi4wJywgJy1waCcsICc3LjAnLCAnLXRuJywgJzgnLCAnLW1hJywgJzIwMCcsICctaW1hZScsICc8aW5maWxlLm1hZT4nLCAnLW9tYWUnLCAnPG91dGZpbGUubWFlPic=

> <r_epik_Ionization_Penalty>
  0.5173

> <r_epik_Ionization_Penalty_Charging>
  0.5172

> <r_epik_Ionization_Penalty_Neutral>
  0.0000

> <r_epik_State_Penalty>
  0.5250

> <r_epik_Charging_Adjusted_Penalty>
1.04221

> <i_epik_Tot_Q>
1

> <i_epik_Tot_abs_Q>
1

> <s_lp_Force_Field>
OPLS3e

> <r_lp_Energy>
37.8911

> <b_lp_Chiralities_Consistent>
1

> <s_lp_Variant>
/home/yujie/leadopt/data/result/selection/LRRK2/lig_20.sdf:1-2

> <s_i_glide_gridfile>
glide-grid_LRRK2

> <i_i_glide_lignum>
2

> <i_i_glide_rotatable_bonds>
5

> <r_i_docking_score>
-7.62730494316612

> <r_i_glide_ligand_efficiency>
-0.217922998376175

> <r_i_glide_ligand_efficiency_sa>
-0.712840577358789

> <r_i_glide_ligand_efficiency_ln>
-1.67436271393767

> <r_i_glide_gscore>
-8.15227194316612

> <r_i_glide_lipo>
-3.59888211038681

> <r_i_glide_hbond>
0

> <r_i_glide_metal>
-0

> <r_i_glide_rewards>
-1.47059581846128

> <r_i_glide_evdw>
-51.6595039367676

> <r_i_glide_ecoul>
-5.68813180923462

> <r_i_glide_erotb>
0.368953896854477

> <r_i_glide_esite>
-0.0155529429489292

> <r_i_glide_emodel>
-87.1035492549883

> <r_i_glide_energy>
-57.3476357460022

> <r_i_glide_einternal>
0.845747947692871

> <i_i_glide_confnum>
127

> <i_i_glide_posenum>
240

> <r_i_glide_eff_state_penalty>
0.524967

$$$$
