/home/yujie/leadopt/data/result/selection/LRRK2/lig_24.sdf:1
                    3D
 Schrodinger Suite 2020-3.
 66 71  0  0  1  0            999 V2000
    8.7805   -4.7537   16.3362 Cl  0  0  0  0  0  0
    7.2569   -4.5622   17.1389 C   0  0  0  0  0  0
    7.1059   -3.4493   17.9691 C   0  0  0  0  0  0
    5.8728   -3.2145   18.6151 C   0  0  0  0  0  0
    5.5540   -2.0618   19.3720 C   0  0  0  0  0  0
    4.3326   -1.8391   19.9180 N   0  0  0  0  0  0
    3.4080   -2.8157   19.7362 C   0  0  0  0  0  0
    2.1429   -2.5670   20.2844 N   0  0  0  0  0  0
    1.0149   -3.3602   20.2568 C   0  0  0  0  0  0
   -0.0921   -3.2386   21.0891 C   0  0  0  0  0  0
   -0.3907   -2.2843   22.2253 C   0  0  0  0  0  0
   -0.9601   -4.2300   20.6910 N   0  0  0  0  0  0
   -2.2871   -4.5277   21.2127 C   0  0  1  0  0  0
   -2.6185   -5.9476   21.6383 C   0  0  0  0  0  0
   -1.6759   -6.8893   21.5924 F   0  0  0  0  0  0
   -3.8458   -6.4067   21.4023 F   0  0  0  0  0  0
   -2.4636   -4.8775   22.6802 C   0  0  0  0  0  0
   -0.5024   -4.9462   19.6616 N   0  0  0  0  0  0
    0.6746   -4.4323   19.4111 C   0  0  0  0  0  0
    3.6142   -3.9775   19.0657 N   0  0  0  0  0  0
    4.8222   -4.1619   18.4745 C   0  0  0  0  0  0
    5.0015   -5.2808   17.6445 C   0  0  0  0  0  0
    6.1973   -5.4720   16.9438 C   0  0  0  0  0  0
    6.3156   -6.6290   15.9327 C   0  0  1  0  0  0
    5.3680   -7.8343   16.1861 C   0  0  0  0  0  0
    5.5668   -8.9600   15.1563 C   0  0  0  0  0  0
    5.3623   -8.3789   13.7444 N   0  3  2  0  0  0
    5.2936   -9.4512   12.6141 C   0  0  1  0  0  0
    6.7011  -10.0841   12.4163 C   0  0  0  0  0  0
    4.2429  -10.5509   12.8511 C   0  0  0  0  0  0
    3.9809  -11.0882   11.5637 O   0  0  0  0  0  0
    4.0443  -10.0426   10.5987 C   0  0  0  0  0  0
    4.7834   -8.8818   11.2836 C   0  0  1  0  0  0
    3.9324   -7.7628   11.4844 O   0  0  0  0  0  0
    6.3486   -7.2248   13.4561 C   0  0  0  0  0  0
    6.1395   -6.1089   14.4911 C   0  0  0  0  0  0
    5.6192   -8.5622   10.6585 H   0  0  0  0  0  0
    7.9133   -2.7393   18.0871 H   0  0  0  0  0  0
    6.2942   -1.2848   19.5105 H   0  0  0  0  0  0
    2.0995   -1.6794   20.7617 H   0  0  0  0  0  0
    0.3829   -1.5239   22.3133 H   0  0  0  0  0  0
   -1.3402   -1.7654   22.0846 H   0  0  0  0  0  0
   -0.4375   -2.7966   23.1850 H   0  0  0  0  0  0
   -3.0676   -3.9305   20.7419 H   0  0  0  0  0  0
   -3.3500   -4.5185   23.2029 H   0  0  0  0  0  0
   -1.5941   -4.9246   23.3378 H   0  0  0  0  0  0
    1.2779   -4.8282   18.6088 H   0  0  0  0  0  0
    4.1610   -5.9469   17.5338 H   0  0  0  0  0  0
    7.3339   -7.0053   16.0532 H   0  0  0  0  0  0
    5.5351   -8.2504   17.1804 H   0  0  0  0  0  0
    4.3219   -7.5325   16.1234 H   0  0  0  0  0  0
    6.5795   -9.3620   15.1869 H   0  0  0  0  0  0
    4.8522   -9.7690   15.3113 H   0  0  0  0  0  0
    6.6783  -10.8733   11.6644 H   0  0  0  0  0  0
    7.4446   -9.3624   12.0775 H   0  0  0  0  0  0
    7.0807  -10.5385   13.3267 H   0  0  0  0  0  0
    4.5775  -11.3376   13.5278 H   0  0  0  0  0  0
    3.3089  -10.1693   13.2689 H   0  0  0  0  0  0
    3.0330   -9.7542   10.3023 H   0  0  0  0  0  0
    4.5863  -10.3924    9.7186 H   0  0  0  0  0  0
    4.3608   -6.9999   11.0587 H   0  0  0  0  0  0
    7.3571   -7.6365   13.5232 H   0  0  0  0  0  0
    6.1955   -6.8678   12.4370 H   0  0  0  0  0  0
    5.1490   -5.6702   14.3560 H   0  0  0  0  0  0
    6.8733   -5.3293   14.2854 H   0  0  0  0  0  0
    4.4446   -7.9528   13.7355 H   0  0  0  0  0  0
  1  2  1  0  0  0
  2 23  1  0  0  0
  2  3  2  0  0  0
  3  4  1  0  0  0
  3 38  1  0  0  0
  4 21  1  0  0  0
  4  5  2  0  0  0
  5  6  1  0  0  0
  5 39  1  0  0  0
  6  7  2  0  0  0
  7  8  1  0  0  0
  7 20  1  0  0  0
  8  9  1  0  0  0
  8 40  1  0  0  0
  9 19  1  0  0  0
  9 10  2  0  0  0
 10 11  1  0  0  0
 10 12  1  0  0  0
 11 41  1  0  0  0
 11 42  1  0  0  0
 11 43  1  0  0  0
 12 13  1  0  0  0
 12 18  1  0  0  0
 13 17  1  0  0  0
 13 14  1  0  0  0
 13 44  1  0  0  0
 14 15  1  0  0  0
 14 16  1  0  0  0
 14 17  1  0  0  0
 17 45  1  0  0  0
 17 46  1  0  0  0
 18 19  2  0  0  0
 19 47  1  0  0  0
 20 21  2  0  0  0
 21 22  1  0  0  0
 22 23  2  0  0  0
 22 48  1  0  0  0
 23 24  1  0  0  0
 24 36  1  0  0  0
 24 25  1  0  0  0
 24 49  1  0  0  0
 25 26  1  0  0  0
 25 50  1  0  0  0
 25 51  1  0  0  0
 26 27  1  0  0  0
 26 52  1  0  0  0
 26 53  1  0  0  0
 27 28  1  0  0  0
 27 35  1  0  0  0
 27 66  1  0  0  0
 28 33  1  0  0  0
 28 29  1  0  0  0
 28 30  1  0  0  0
 29 54  1  0  0  0
 29 55  1  0  0  0
 29 56  1  0  0  0
 30 31  1  0  0  0
 30 57  1  0  0  0
 30 58  1  0  0  0
 31 32  1  0  0  0
 32 33  1  0  0  0
 32 59  1  0  0  0
 32 60  1  0  0  0
 33 37  1  0  0  0
 33 34  1  0  0  0
 34 61  1  0  0  0
 35 36  1  0  0  0
 35 62  1  0  0  0
 35 63  1  0  0  0
 36 64  1  0  0  0
 36 65  1  0  0  0
M  CHG  1  27   1
M  END
> <s_m_source_file>
/home/yujie/leadopt/data/result/selection/LRRK2/lig_24.sdf

> <i_m_source_file_index>
1

> <i_lp_mmshare_version>
51139

> <i_f3d_flags>
0

> <s_epik_input>
W09IXVtDQEBIXTFbQ0gyXU9bQ0gyXVtDQF0xKFtDSDNdKU4oW0NIMl1bQ0gyXTIpW0NIMl1bQ0gyXVtDSF0yYyhjKENsKVtjSF0zKVtjSF1jKGMzNCluYyhuW2NIXTQpW05IXWM1YyhbQ0gzXSluKFtDQEBIXShDNihGKUYpW0NIMl02KW5bY0hdNQ==

> <s_epik_cmdline>
J2VwaWtfcHl0aG9uJywgJy1waHQnLCAnMi4wJywgJy1waCcsICc3LjAnLCAnLXRuJywgJzgnLCAnLW1hJywgJzIwMCcsICctaW1hZScsICc8aW5maWxlLm1hZT4nLCAnLW9tYWUnLCAnPG91dGZpbGUubWFlPic=

> <r_epik_Ionization_Penalty>
  0.0523

> <r_epik_Ionization_Penalty_Charging>
  0.0521

> <r_epik_Ionization_Penalty_Neutral>
  0.0002

> <r_epik_State_Penalty>
  0.0447

> <r_epik_Charging_Adjusted_Penalty>
0.0968555

> <i_epik_Tot_Q>
1

> <i_epik_Tot_abs_Q>
1

> <s_lp_Force_Field>
OPLS3e

> <r_lp_Energy>
44.6355

> <b_lp_Chiralities_Consistent>
1

> <s_lp_Variant>
/home/yujie/leadopt/data/result/selection/LRRK2/lig_24.sdf:1-1

> <s_i_glide_gridfile>
glide-grid_LRRK2

> <i_i_glide_lignum>
1

> <i_i_glide_rotatable_bonds>
6

> <r_i_docking_score>
-9.06029969041275

> <r_i_glide_ligand_efficiency>
-0.251674991400354

> <r_i_glide_ligand_efficiency_sa>
-0.831012510977501

> <r_i_glide_ligand_efficiency_ln>
-1.97671261143836

> <r_i_glide_gscore>
-9.10501299041275

> <r_i_glide_lipo>
-3.7704892644692

> <r_i_glide_hbond>
-0.200662087593959

> <r_i_glide_metal>
-0

> <r_i_glide_rewards>
-1.3711514100969

> <r_i_glide_evdw>
-47.4402084350586

> <r_i_glide_ecoul>
-11.0445280075073

> <r_i_glide_erotb>
0.265979394626331

> <r_i_glide_esite>
0

> <r_i_glide_emodel>
-95.0642513315206

> <r_i_glide_energy>
-58.4847364425659

> <r_i_glide_einternal>
3.1527271270752

> <i_i_glide_confnum>
109

> <i_i_glide_posenum>
17

> <r_i_glide_eff_state_penalty>
0.0447133

$$$$
