/home/yujie/leadopt/data/result/selection/LRRK2/lig_5.sdf:1
                    3D
 Schrodinger Suite 2020-3.
 46 50  0  0  1  0            999 V2000
    3.5178   -2.6661   19.6728 C   0  0  0  0  0  0
    2.1788   -2.5624   20.0693 N   0  0  0  0  0  0
    1.1684   -3.4724   19.8853 C   0  0  0  0  0  0
    0.0560   -3.6532   20.6854 C   0  0  0  0  0  0
   -0.6864   -4.6571   20.1169 N   0  0  0  0  0  0
   -1.9438   -5.2333   20.6169 C   0  0  0  0  0  0
   -3.1162   -5.1394   19.6120 C   0  0  0  0  0  0
   -3.0986   -6.2949   18.5846 C   0  0  0  0  0  0
   -3.0078   -7.5478   19.2686 O   0  0  0  0  0  0
   -1.8162   -7.7238   20.0406 C   0  0  0  0  0  0
   -1.7774   -6.6673   21.1649 C   0  0  0  0  0  0
   -0.1161   -5.1233   18.9966 N   0  0  0  0  0  0
    0.9726   -4.4072   18.8543 C   0  0  0  0  0  0
    3.9565   -3.8089   19.0852 N   0  0  0  0  0  0
    5.2283   -3.8292   18.5876 C   0  0  0  0  0  0
    5.7123   -4.9706   17.8849 C   0  0  0  0  0  0
    4.8196   -6.2006   17.7268 C   0  0  0  0  0  0
    3.6360   -6.2110   16.7885 C   0  0  0  0  0  0
    4.8376   -7.0783   16.4954 C   0  0  0  0  0  0
    7.0103   -4.9619   17.3683 C   0  0  0  0  0  0
    7.8391   -3.8547   17.5265 C   0  0  0  0  0  0
    7.3947   -2.7201   18.1993 C   0  0  0  0  0  0
    6.0849   -2.6950   18.7287 C   0  0  0  0  0  0
    5.5322   -1.5878   19.4068 C   0  0  0  0  0  0
    4.2666   -1.5584   19.8839 N   0  0  0  0  0  0
    1.9556   -1.6512   20.4430 H   0  0  0  0  0  0
   -0.2626   -3.1703   21.5976 H   0  0  0  0  0  0
   -2.1850   -4.5883   21.4664 H   0  0  0  0  0  0
   -4.0570   -5.1629   20.1664 H   0  0  0  0  0  0
   -3.1366   -4.1631   19.1263 H   0  0  0  0  0  0
   -4.0136   -6.2790   17.9904 H   0  0  0  0  0  0
   -2.2781   -6.1913   17.8703 H   0  0  0  0  0  0
   -1.8187   -8.7247   20.4718 H   0  0  0  0  0  0
   -0.9301   -7.6697   19.4037 H   0  0  0  0  0  0
   -0.8700   -6.7522   21.7649 H   0  0  0  0  0  0
   -2.5721   -6.8659   21.8876 H   0  0  0  0  0  0
    1.6342   -4.5638   18.0156 H   0  0  0  0  0  0
    4.6640   -6.7202   18.6730 H   0  0  0  0  0  0
    3.4534   -5.3290   16.1752 H   0  0  0  0  0  0
    2.7111   -6.6821   17.1279 H   0  0  0  0  0  0
    4.7570   -8.1585   16.6276 H   0  0  0  0  0  0
    5.4811   -6.8126   15.6568 H   0  0  0  0  0  0
    7.3867   -5.8275   16.8417 H   0  0  0  0  0  0
    8.8400   -3.8765   17.1206 H   0  0  0  0  0  0
    8.0417   -1.8619   18.3158 H   0  0  0  0  0  0
    6.1222   -0.6924   19.5384 H   0  0  0  0  0  0
  1 25  1  0  0  0
  1  2  1  0  0  0
  1 14  2  0  0  0
  2  3  1  0  0  0
  2 26  1  0  0  0
  3 13  1  0  0  0
  3  4  2  0  0  0
  4  5  1  0  0  0
  4 27  1  0  0  0
  5  6  1  0  0  0
  5 12  1  0  0  0
  6 11  1  0  0  0
  6  7  1  0  0  0
  6 28  1  0  0  0
  7  8  1  0  0  0
  7 29  1  0  0  0
  7 30  1  0  0  0
  8  9  1  0  0  0
  8 31  1  0  0  0
  8 32  1  0  0  0
  9 10  1  0  0  0
 10 11  1  0  0  0
 10 33  1  0  0  0
 10 34  1  0  0  0
 11 35  1  0  0  0
 11 36  1  0  0  0
 12 13  2  0  0  0
 13 37  1  0  0  0
 14 15  1  0  0  0
 15 16  1  0  0  0
 15 23  2  0  0  0
 16 17  1  0  0  0
 16 20  2  0  0  0
 17 19  1  0  0  0
 17 18  1  0  0  0
 17 38  1  0  0  0
 18 19  1  0  0  0
 18 39  1  0  0  0
 18 40  1  0  0  0
 19 41  1  0  0  0
 19 42  1  0  0  0
 20 21  1  0  0  0
 20 43  1  0  0  0
 21 22  2  0  0  0
 21 44  1  0  0  0
 22 23  1  0  0  0
 22 45  1  0  0  0
 23 24  1  0  0  0
 24 25  2  0  0  0
 24 46  1  0  0  0
M  END
> <s_m_source_file>
/home/yujie/leadopt/data/result/selection/LRRK2/lig_5.sdf

> <i_m_source_file_index>
1

> <i_lp_mmshare_version>
51139

> <i_f3d_flags>
0

> <s_epik_input>
W0NIMl0xW0NIMl1bQ0hdMWMyW2NIXVtjSF1bY0hdYyhjMjMpW2NIXW5jKG4zKVtOSF1jNFtjSF1uKG5bY0hdNClbQ0hdNVtDSDJdW0NIMl1PW0NIMl1bQ0gyXTU=

> <s_epik_cmdline>
J2VwaWtfcHl0aG9uJywgJy1waHQnLCAnMi4wJywgJy1waCcsICc3LjAnLCAnLXRuJywgJzgnLCAnLW1hJywgJzIwMCcsICctaW1hZScsICc8aW5maWxlLm1hZT4nLCAnLW9tYWUnLCAnPG91dGZpbGUubWFlPic=

> <r_lp_tautomer_probability>
1

> <r_epik_Ionization_Penalty>
  0.0008

> <r_epik_Ionization_Penalty_Charging>
  0.0000

> <r_epik_Ionization_Penalty_Neutral>
  0.0008

> <r_epik_State_Penalty>
 -0.0000

> <r_epik_Charging_Adjusted_Penalty>
0

> <i_epik_Tot_Q>
0

> <i_epik_Tot_abs_Q>
0

> <s_lp_Force_Field>
OPLS3e

> <r_lp_Energy>
21.9099

> <b_lp_Chiralities_Consistent>
1

> <s_lp_Variant>
/home/yujie/leadopt/data/result/selection/LRRK2/lig_5.sdf:1-1

> <s_i_glide_gridfile>
glide-grid_LRRK2

> <i_i_glide_lignum>
1

> <i_i_glide_rotatable_bonds>
4

> <r_i_docking_score>
-9.03742235938928

> <r_i_glide_ligand_efficiency>
-0.361496894375571

> <r_i_glide_ligand_efficiency_sa>
-1.05702333032889

> <r_i_glide_ligand_efficiency_ln>
-2.14213992886876

> <r_i_glide_gscore>
-9.03742235938928

> <r_i_glide_lipo>
-3.36839236192982

> <r_i_glide_hbond>
-0.537449139856119

> <r_i_glide_metal>
-0

> <r_i_glide_rewards>
-2.96992591835994

> <r_i_glide_evdw>
-40.2719078063965

> <r_i_glide_ecoul>
-4.11872386932373

> <r_i_glide_erotb>
0.469749031474991

> <r_i_glide_esite>
0

> <r_i_glide_emodel>
-65.0751881594987

> <r_i_glide_energy>
-44.3906316757202

> <r_i_glide_einternal>
8.59563541412354

> <i_i_glide_confnum>
74

> <i_i_glide_posenum>
211

> <r_i_glide_eff_state_penalty>
-0

$$$$
