/home/yujie/leadopt/data/result/selection/LRRK2/lig_14.sdf:1
                    3D
 Schrodinger Suite 2020-3.
 55 60  0  0  1  0            999 V2000
    8.7440   -4.9450   15.7693 Cl  0  0  0  0  0  0
    7.3142   -4.7361   16.7257 C   0  0  0  0  0  0
    7.2542   -3.6043   17.5406 C   0  0  0  0  0  0
    6.0960   -3.3449   18.3036 C   0  0  0  0  0  0
    5.8851   -2.1861   19.0853 C   0  0  0  0  0  0
    4.7319   -1.9382   19.7538 N   0  0  0  0  0  0
    3.7632   -2.8830   19.6510 C   0  0  0  0  0  0
    2.5587   -2.5623   20.2851 N   0  0  0  0  0  0
    1.3553   -3.2247   20.2835 C   0  0  0  0  0  0
    0.3501   -3.0929   21.2279 C   0  0  0  0  0  0
    0.2722   -2.1622   22.6747 Cl  0  0  0  0  0  0
   -0.6770   -3.9025   20.8134 N   0  0  0  0  0  0
   -1.9639   -4.1123   21.4646 C   0  0  0  0  0  0
   -2.9515   -2.9620   21.4912 C   0  0  0  0  0  0
   -3.2294   -4.1649   20.6265 C   0  0  0  0  0  0
   -0.3813   -4.5699   19.6920 N   0  0  0  0  0  0
    0.8262   -4.1619   19.3785 C   0  0  0  0  0  0
    3.8700   -4.0576   18.9766 N   0  0  0  0  0  0
    5.0214   -4.2764   18.2850 C   0  0  0  0  0  0
    5.1232   -5.4290   17.4823 C   0  0  0  0  0  0
    6.2424   -5.6514   16.6699 C   0  0  0  0  0  0
    6.2938   -6.8522   15.6989 C   0  0  0  0  0  0
    5.3894   -8.0738   16.0367 C   0  0  0  0  0  0
    3.9030   -7.9718   15.5987 C   0  0  0  0  0  0
    3.7471   -7.4667   14.2259 N   0  0  2  0  0  0
    2.3704   -7.3630   13.7137 C   0  0  0  0  0  0
    1.4190   -8.5658   13.8163 C   0  0  0  0  0  0
    0.3701   -7.7138   14.4492 O   0  0  0  0  0  0
    1.3176   -6.5626   14.4979 C   0  0  0  0  0  0
    4.4812   -6.2185   13.9829 C   0  0  0  0  0  0
    5.9831   -6.4101   14.2519 C   0  0  0  0  0  0
    8.0749   -2.9006   17.5618 H   0  0  0  0  0  0
    6.6549   -1.4290   19.1514 H   0  0  0  0  0  0
    2.6158   -1.6815   20.7691 H   0  0  0  0  0  0
   -1.8919   -4.7510   22.3462 H   0  0  0  0  0  0
   -2.6711   -2.0177   21.0217 H   0  0  0  0  0  0
   -3.5372   -2.8061   22.3976 H   0  0  0  0  0  0
   -4.0142   -4.8624   20.9204 H   0  0  0  0  0  0
   -3.1533   -4.0696   19.5425 H   0  0  0  0  0  0
    1.3212   -4.5323   18.4931 H   0  0  0  0  0  0
    4.2875   -6.1036   17.4965 H   0  0  0  0  0  0
    7.3137   -7.2400   15.7039 H   0  0  0  0  0  0
    5.7894   -8.9618   15.5431 H   0  0  0  0  0  0
    5.4483   -8.3050   17.1004 H   0  0  0  0  0  0
    3.4690   -8.9696   15.6502 H   0  0  0  0  0  0
    3.3130   -7.3778   16.2912 H   0  0  0  0  0  0
    2.4523   -7.0182   12.6851 H   0  0  0  0  0  0
    1.0466   -8.9445   12.8633 H   0  0  0  0  0  0
    1.6943   -9.3670   14.5018 H   0  0  0  0  0  0
    1.5458   -6.3236   15.5372 H   0  0  0  0  0  0
    0.8847   -5.7188   13.9598 H   0  0  0  0  0  0
    4.3646   -5.9206   12.9389 H   0  0  0  0  0  0
    4.0540   -5.4127   14.5826 H   0  0  0  0  0  0
    6.5184   -5.4938   14.0049 H   0  0  0  0  0  0
    6.3518   -7.1559   13.5450 H   0  0  0  0  0  0
  1  2  1  0  0  0
  2 21  1  0  0  0
  2  3  2  0  0  0
  3  4  1  0  0  0
  3 32  1  0  0  0
  4 19  1  0  0  0
  4  5  2  0  0  0
  5  6  1  0  0  0
  5 33  1  0  0  0
  6  7  2  0  0  0
  7  8  1  0  0  0
  7 18  1  0  0  0
  8  9  1  0  0  0
  8 34  1  0  0  0
  9 17  1  0  0  0
  9 10  2  0  0  0
 10 11  1  0  0  0
 10 12  1  0  0  0
 12 13  1  0  0  0
 12 16  1  0  0  0
 13 15  1  0  0  0
 13 14  1  0  0  0
 13 35  1  0  0  0
 14 15  1  0  0  0
 14 36  1  0  0  0
 14 37  1  0  0  0
 15 38  1  0  0  0
 15 39  1  0  0  0
 16 17  2  0  0  0
 17 40  1  0  0  0
 18 19  2  0  0  0
 19 20  1  0  0  0
 20 21  2  0  0  0
 20 41  1  0  0  0
 21 22  1  0  0  0
 22 31  1  0  0  0
 22 23  1  0  0  0
 22 42  1  0  0  0
 23 24  1  0  0  0
 23 43  1  0  0  0
 23 44  1  0  0  0
 24 25  1  0  0  0
 24 45  1  0  0  0
 24 46  1  0  0  0
 25 26  1  0  0  0
 25 30  1  0  0  0
 26 29  1  0  0  0
 26 27  1  0  0  0
 26 47  1  0  0  0
 27 28  1  0  0  0
 27 48  1  0  0  0
 27 49  1  0  0  0
 28 29  1  0  0  0
 29 50  1  0  0  0
 29 51  1  0  0  0
 30 31  1  0  0  0
 30 52  1  0  0  0
 30 53  1  0  0  0
 31 54  1  0  0  0
 31 55  1  0  0  0
M  END
> <s_m_source_file>
/home/yujie/leadopt/data/result/selection/LRRK2/lig_14.sdf

> <i_m_source_file_index>
1

> <i_lp_mmshare_version>
51139

> <i_f3d_flags>
0

> <s_epik_input>
W0NIMl0xT1tDSDJdW0NIXTFOKFtDSDJdW0NIMl0yKVtDSDJdW0NIMl1bQ0hdMmMoYyhDbClbY0hdMylbY0hdYyhjMzQpbmMobltjSF00KVtOSF1jNWMoQ2wpbihuW2NIXTUpW0NIXTZbQ0gyXVtDSDJdNg==

> <s_epik_cmdline>
J2VwaWtfcHl0aG9uJywgJy1waHQnLCAnMi4wJywgJy1waCcsICc3LjAnLCAnLXRuJywgJzgnLCAnLW1hJywgJzIwMCcsICctaW1hZScsICc8aW5maWxlLm1hZT4nLCAnLW9tYWUnLCAnPG91dGZpbGUubWFlPic=

> <r_epik_Ionization_Penalty>
  1.1295

> <r_epik_Ionization_Penalty_Charging>
  0.0000

> <r_epik_Ionization_Penalty_Neutral>
  1.1295

> <r_epik_State_Penalty>
  1.1890

> <r_epik_Charging_Adjusted_Penalty>
1.189

> <i_epik_Tot_Q>
0

> <i_epik_Tot_abs_Q>
0

> <s_lp_Force_Field>
OPLS3e

> <r_lp_Energy>
27.2314

> <b_lp_Chiralities_Consistent>
1

> <s_lp_Variant>
/home/yujie/leadopt/data/result/selection/LRRK2/lig_14.sdf:1-2

> <s_i_glide_gridfile>
glide-grid_LRRK2

> <i_i_glide_lignum>
2

> <i_i_glide_rotatable_bonds>
5

> <r_i_docking_score>
-7.32227041114601

> <r_i_glide_ligand_efficiency>
-0.236202271327291

> <r_i_glide_ligand_efficiency_sa>
-0.742001244349112

> <r_i_glide_ligand_efficiency_ln>
-1.65139637835203

> <r_i_glide_gscore>
-8.51127041114601

> <r_i_glide_lipo>
-4.18145132844352

> <r_i_glide_hbond>
0

> <r_i_glide_metal>
-0

> <r_i_glide_rewards>
-1.79355694047811

> <r_i_glide_evdw>
-51.8371276855469

> <r_i_glide_ecoul>
-2.80757284164429

> <r_i_glide_erotb>
0.476730168299604

> <r_i_glide_esite>
0

> <r_i_glide_emodel>
-79.3963928142527

> <r_i_glide_energy>
-54.6447005271912

> <r_i_glide_einternal>
4.86460065841675

> <i_i_glide_confnum>
326

> <i_i_glide_posenum>
69

> <r_i_glide_eff_state_penalty>
1.189

$$$$
