/home/yujie/leadopt/data/result/selection/LRRK2/lig_13.sdf:1
                    3D
 Schrodinger Suite 2020-3.
 59 64  0  0  1  0            999 V2000
    9.0714   -4.1952   15.7733 Cl  0  0  0  0  0  0
    7.5740   -4.2527   16.6437 C   0  0  0  0  0  0
    7.3682   -3.2746   17.6173 C   0  0  0  0  0  0
    6.1374   -3.2103   18.3061 C   0  0  0  0  0  0
    5.1474   -4.2059   18.0753 C   0  0  0  0  0  0
    5.3998   -5.2154   17.1248 C   0  0  0  0  0  0
    6.5767   -5.2098   16.3658 C   0  0  0  0  0  0
    6.6803   -6.1900   15.1867 C   0  0  1  0  0  0
    6.7174   -7.6742   15.6133 C   0  0  0  0  0  0
    6.8530   -8.6050   14.3913 C   0  0  0  0  0  0
    5.6766   -8.3460   13.4188 N   0  3  2  0  0  0
    5.8020   -9.2581   12.1734 C   0  0  0  0  0  0
    5.5297  -10.7543   12.3717 C   0  0  0  0  0  0
    4.5519  -10.7423   11.2456 O   0  0  0  0  0  0
    4.6232   -9.2555   11.1920 C   0  0  0  0  0  0
    5.6434   -6.8749   12.9473 C   0  0  0  0  0  0
    5.5583   -5.9312   14.1531 C   0  0  0  0  0  0
    3.9304   -4.1624   18.6859 N   0  0  0  0  0  0
    3.6711   -3.0924   19.4864 C   0  0  0  0  0  0
    2.4006   -2.9342   20.0578 N   0  0  0  0  0  0
    1.2643   -3.7051   19.9425 C   0  0  0  0  0  0
    0.0953   -3.5553   20.6850 C   0  0  0  0  0  0
   -0.2849   -2.5632   21.7688 C   0  0  0  0  0  0
   -0.7540   -4.5502   20.2469 N   0  0  0  0  0  0
   -2.1265   -4.8087   20.7004 C   0  0  0  0  0  0
   -3.2237   -4.9957   19.6680 C   0  0  0  0  0  0
   -2.7601   -6.1740   20.4895 C   0  0  0  0  0  0
   -0.2185   -5.2836   19.2621 N   0  0  0  0  0  0
    0.9749   -4.7781   19.0835 C   0  0  0  0  0  0
    4.5498   -2.1022   19.7862 N   0  0  0  0  0  0
    5.7692   -2.1806   19.2002 C   0  0  0  0  0  0
    8.1228   -2.5239   17.8049 H   0  0  0  0  0  0
    4.6218   -5.9401   16.9341 H   0  0  0  0  0  0
    7.6251   -5.9891   14.6855 H   0  0  0  0  0  0
    7.5738   -7.8499   16.2678 H   0  0  0  0  0  0
    5.8188   -7.9432   16.1706 H   0  0  0  0  0  0
    7.7797   -8.4277   13.8392 H   0  0  0  0  0  0
    6.8040   -9.6566   14.6811 H   0  0  0  0  0  0
    6.7694   -9.0087   11.7294 H   0  0  0  0  0  0
    6.3578  -11.4188   12.1218 H   0  0  0  0  0  0
    5.0194  -11.0414   13.2936 H   0  0  0  0  0  0
    3.6846   -8.8359   11.5550 H   0  0  0  0  0  0
    4.8624   -8.9359   10.1771 H   0  0  0  0  0  0
    6.5409   -6.7125   12.3483 H   0  0  0  0  0  0
    4.7771   -6.7530   12.2935 H   0  0  0  0  0  0
    4.5704   -6.0354   14.6023 H   0  0  0  0  0  0
    5.6409   -4.9120   13.7704 H   0  0  0  0  0  0
    2.3616   -2.1086   20.6338 H   0  0  0  0  0  0
    0.5018   -1.8295   21.9448 H   0  0  0  0  0  0
   -1.1811   -2.0002   21.5064 H   0  0  0  0  0  0
   -0.4775   -3.0569   22.7212 H   0  0  0  0  0  0
   -2.3808   -4.2855   21.6234 H   0  0  0  0  0  0
   -2.9712   -4.9579   18.6061 H   0  0  0  0  0  0
   -4.2015   -4.5574   19.8690 H   0  0  0  0  0  0
   -3.4142   -6.5655   21.2701 H   0  0  0  0  0  0
   -2.1835   -6.9653   20.0088 H   0  0  0  0  0  0
    1.6318   -5.1971   18.3364 H   0  0  0  0  0  0
    6.4658   -1.3831   19.4243 H   0  0  0  0  0  0
    4.8100   -8.5447   13.9013 H   0  0  0  0  0  0
  1  2  1  0  0  0
  2  7  1  0  0  0
  2  3  2  0  0  0
  3  4  1  0  0  0
  3 32  1  0  0  0
  4 31  1  0  0  0
  4  5  2  0  0  0
  5  6  1  0  0  0
  5 18  1  0  0  0
  6  7  2  0  0  0
  6 33  1  0  0  0
  7  8  1  0  0  0
  8 17  1  0  0  0
  8  9  1  0  0  0
  8 34  1  0  0  0
  9 10  1  0  0  0
  9 35  1  0  0  0
  9 36  1  0  0  0
 10 11  1  0  0  0
 10 37  1  0  0  0
 10 38  1  0  0  0
 11 12  1  0  0  0
 11 16  1  0  0  0
 11 59  1  0  0  0
 12 15  1  0  0  0
 12 13  1  0  0  0
 12 39  1  0  0  0
 13 14  1  0  0  0
 13 40  1  0  0  0
 13 41  1  0  0  0
 14 15  1  0  0  0
 15 42  1  0  0  0
 15 43  1  0  0  0
 16 17  1  0  0  0
 16 44  1  0  0  0
 16 45  1  0  0  0
 17 46  1  0  0  0
 17 47  1  0  0  0
 18 19  2  0  0  0
 19 20  1  0  0  0
 19 30  1  0  0  0
 20 21  1  0  0  0
 20 48  1  0  0  0
 21 29  1  0  0  0
 21 22  2  0  0  0
 22 23  1  0  0  0
 22 24  1  0  0  0
 23 49  1  0  0  0
 23 50  1  0  0  0
 23 51  1  0  0  0
 24 25  1  0  0  0
 24 28  1  0  0  0
 25 27  1  0  0  0
 25 26  1  0  0  0
 25 52  1  0  0  0
 26 27  1  0  0  0
 26 53  1  0  0  0
 26 54  1  0  0  0
 27 55  1  0  0  0
 27 56  1  0  0  0
 28 29  2  0  0  0
 29 57  1  0  0  0
 30 31  2  0  0  0
 31 58  1  0  0  0
M  CHG  1  11   1
M  END
> <s_m_source_file>
/home/yujie/leadopt/data/result/selection/LRRK2/lig_13.sdf

> <i_m_source_file_index>
1

> <i_lp_mmshare_version>
51139

> <i_f3d_flags>
0

> <s_epik_input>
W0NIMl0xT1tDSDJdW0NIXTFOKFtDSDJdW0NIMl0yKVtDSDJdW0NIMl1bQ0hdMmMoYyhDbClbY0hdMylbY0hdYyhjMzQpbmMobltjSF00KVtOSF1jNWMoW0NIM10pbihuW2NIXTUpW0NIXTZbQ0gyXVtDSDJdNg==

> <s_epik_cmdline>
J2VwaWtfcHl0aG9uJywgJy1waHQnLCAnMi4wJywgJy1waCcsICc3LjAnLCAnLXRuJywgJzgnLCAnLW1hJywgJzIwMCcsICctaW1hZScsICc8aW5maWxlLm1hZT4nLCAnLW9tYWUnLCAnPG91dGZpbGUubWFlPic=

> <r_epik_Ionization_Penalty>
  0.0963

> <r_epik_Ionization_Penalty_Charging>
  0.0953

> <r_epik_Ionization_Penalty_Neutral>
  0.0010

> <r_epik_State_Penalty>
  0.0855

> <r_epik_Charging_Adjusted_Penalty>
0.180866

> <i_epik_Tot_Q>
1

> <i_epik_Tot_abs_Q>
1

> <s_lp_Force_Field>
OPLS3e

> <r_lp_Energy>
37.6627

> <b_lp_Chiralities_Consistent>
1

> <s_lp_Variant>
/home/yujie/leadopt/data/result/selection/LRRK2/lig_13.sdf:1-1

> <s_i_glide_gridfile>
glide-grid_LRRK2

> <i_i_glide_lignum>
1

> <i_i_glide_rotatable_bonds>
5

> <r_i_docking_score>
-7.58066942588681

> <r_i_glide_ligand_efficiency>
-0.244537723415704

> <r_i_glide_ligand_efficiency_sa>
-0.768186072238615

> <r_i_glide_ligand_efficiency_ln>
-1.70967327515485

> <r_i_glide_gscore>
-7.66619732588681

> <r_i_glide_lipo>
-3.63716692240145

> <r_i_glide_hbond>
0

> <r_i_glide_metal>
-0

> <r_i_glide_rewards>
-1.29473360420902

> <r_i_glide_evdw>
-47.8992004394531

> <r_i_glide_ecoul>
-5.58717203140259

> <r_i_glide_erotb>
0.515655930429433

> <r_i_glide_esite>
-0.0169169030227328

> <r_i_glide_emodel>
-82.9617810627564

> <r_i_glide_energy>
-53.4863724708557

> <r_i_glide_einternal>
0.577635526657104

> <i_i_glide_confnum>
7

> <i_i_glide_posenum>
216

> <r_i_glide_eff_state_penalty>
0.0855279

$$$$
