/home/yujie/leadopt/data/result/selection/LRRK2/lig_22.sdf:1
                    3D
 Schrodinger Suite 2020-3.
 60 65  0  0  1  0            999 V2000
    9.0406   -4.0079   15.5002 Cl  0  0  0  0  0  0
    7.6443   -4.0761   16.5268 C   0  0  0  0  0  0
    7.5186   -3.0838   17.5002 C   0  0  0  0  0  0
    6.3449   -3.0071   18.2853 C   0  0  0  0  0  0
    5.3557   -4.0237   18.1786 C   0  0  0  0  0  0
    5.5399   -5.0577   17.2367 C   0  0  0  0  0  0
    6.6369   -5.0452   16.3605 C   0  0  0  0  0  0
    6.6216   -6.0103   15.1595 C   0  0  1  0  0  0
    6.8227   -7.5028   15.5235 C   0  0  2  0  0  0
    8.0422   -7.6691   16.0405 F   0  0  0  0  0  0
    6.7166   -8.4474   14.3069 C   0  0  0  0  0  0
    5.3888   -8.1935   13.5455 N   0  3  2  0  0  0
    5.2591   -9.1593   12.3332 C   0  0  2  0  0  0
    4.0685   -8.9590   11.3738 C   0  0  0  0  0  0
    3.6535  -10.2602   10.9579 O   0  0  0  0  0  0
    4.6139  -11.2283   11.3653 C   0  0  0  0  0  0
    5.2178  -10.6538   12.6457 C   0  0  2  0  0  0
    4.4302  -10.9524   13.7906 O   0  0  0  0  0  0
    5.3024   -6.7203   13.0827 C   0  0  0  0  0  0
    5.3553   -5.7889   14.2952 C   0  0  0  0  0  0
    4.1830   -3.9591   18.8726 N   0  0  0  0  0  0
    3.9649   -2.8436   19.6242 C   0  0  0  0  0  0
    2.7228   -2.6270   20.2321 N   0  0  0  0  0  0
    1.5573   -3.3551   20.1856 C   0  0  0  0  0  0
    0.4844   -3.2162   21.0551 C   0  0  0  0  0  0
    0.2568   -2.1637   22.4015 Cl  0  0  0  0  0  0
   -0.4540   -4.1382   20.6567 N   0  0  0  0  0  0
   -1.7428   -4.4194   21.2793 C   0  0  1  0  0  0
   -2.8516   -3.3776   21.2084 C   0  0  0  0  0  0
   -2.9686   -4.6510   20.4184 C   0  0  0  0  0  0
   -3.8561   -5.5566   20.8264 F   0  0  0  0  0  0
   -2.8706   -4.5630   19.0930 F   0  0  0  0  0  0
   -0.0508   -4.8525   19.5985 N   0  0  0  0  0  0
    1.1340   -4.3683   19.3075 C   0  0  0  0  0  0
    4.8537   -1.8366   19.8134 N   0  0  0  0  0  0
    6.0321   -1.9408   19.1577 C   0  0  0  0  0  0
    7.4623   -5.7460   14.5201 H   0  0  0  0  0  0
    6.0928   -7.8078   16.2748 H   0  0  0  0  0  0
    6.1737   -8.9372   11.7764 H   0  0  0  0  0  0
    6.2238  -11.0454   12.7777 H   0  0  0  0  0  0
    8.2754   -2.3192   17.5995 H   0  0  0  0  0  0
    4.7565   -5.7959   17.1304 H   0  0  0  0  0  0
    7.5277   -8.2874   13.5922 H   0  0  0  0  0  0
    6.7225   -9.4896   14.6270 H   0  0  0  0  0  0
    3.2381   -8.4768   11.8937 H   0  0  0  0  0  0
    4.3711   -8.3597   10.5136 H   0  0  0  0  0  0
    5.3636  -11.3401   10.5757 H   0  0  0  0  0  0
    4.1482  -12.2088   11.5063 H   0  0  0  0  0  0
    4.3400  -11.9071   13.8952 H   0  0  0  0  0  0
    6.1360   -6.5585   12.3941 H   0  0  0  0  0  0
    4.3669   -6.5800   12.5413 H   0  0  0  0  0  0
    4.4435   -5.9317   14.8764 H   0  0  0  0  0  0
    5.3516   -4.7668   13.9160 H   0  0  0  0  0  0
    2.7219   -1.7770   20.7721 H   0  0  0  0  0  0
   -1.6472   -4.9866   22.2042 H   0  0  0  0  0  0
   -2.6709   -2.4395   20.6856 H   0  0  0  0  0  0
   -3.4969   -3.2343   22.0738 H   0  0  0  0  0  0
    1.6974   -4.7621   18.4748 H   0  0  0  0  0  0
    6.7367   -1.1317   19.2949 H   0  0  0  0  0  0
    4.6161   -8.3836   14.1735 H   0  0  0  0  0  0
  1  2  1  0  0  0
  2  7  1  0  0  0
  2  3  2  0  0  0
  3  4  1  0  0  0
  3 41  1  0  0  0
  4 36  1  0  0  0
  4  5  2  0  0  0
  5  6  1  0  0  0
  5 21  1  0  0  0
  6  7  2  0  0  0
  6 42  1  0  0  0
  7  8  1  0  0  0
  8 37  1  0  0  0
  8 20  1  0  0  0
  8  9  1  0  0  0
  9 38  1  0  0  0
  9 10  1  0  0  0
  9 11  1  0  0  0
 11 12  1  0  0  0
 11 43  1  0  0  0
 11 44  1  0  0  0
 12 13  1  0  0  0
 12 19  1  0  0  0
 12 60  1  0  0  0
 13 39  1  0  0  0
 13 17  1  0  0  0
 13 14  1  0  0  0
 14 15  1  0  0  0
 14 45  1  0  0  0
 14 46  1  0  0  0
 15 16  1  0  0  0
 16 17  1  0  0  0
 16 47  1  0  0  0
 16 48  1  0  0  0
 17 40  1  0  0  0
 17 18  1  0  0  0
 18 49  1  0  0  0
 19 20  1  0  0  0
 19 50  1  0  0  0
 19 51  1  0  0  0
 20 52  1  0  0  0
 20 53  1  0  0  0
 21 22  2  0  0  0
 22 23  1  0  0  0
 22 35  1  0  0  0
 23 24  1  0  0  0
 23 54  1  0  0  0
 24 34  1  0  0  0
 24 25  2  0  0  0
 25 26  1  0  0  0
 25 27  1  0  0  0
 27 28  1  0  0  0
 27 33  1  0  0  0
 28 30  1  0  0  0
 28 29  1  0  0  0
 28 55  1  0  0  0
 29 30  1  0  0  0
 29 56  1  0  0  0
 29 57  1  0  0  0
 30 31  1  0  0  0
 30 32  1  0  0  0
 33 34  2  0  0  0
 34 58  1  0  0  0
 35 36  2  0  0  0
 36 59  1  0  0  0
M  CHG  1  12   1
M  END
> <s_m_source_file>
/home/yujie/leadopt/data/result/selection/LRRK2/lig_22.sdf

> <i_m_source_file_index>
1

> <i_lp_mmshare_version>
51139

> <i_f3d_flags>
0

> <s_epik_input>
W09IXVtDQEhdMVtDSDJdT1tDSDJdW0NASF0xTihbQ0gyXVtDSDJdMilbQ0gyXVtDQEBIXShGKVtDQEBIXTJjKGMoQ2wpW2NIXTMpW2NIXWMoYzM0KW5jKG5bY0hdNClbTkhdYzVjKENsKW4oW0NAQEhdKFtDSDJdNilDNihGKUYpbltjSF01

> <s_epik_cmdline>
J2VwaWtfcHl0aG9uJywgJy1waHQnLCAnMi4wJywgJy1waCcsICc3LjAnLCAnLXRuJywgJzgnLCAnLW1hJywgJzIwMCcsICctaW1hZScsICc8aW5maWxlLm1hZT4nLCAnLW9tYWUnLCAnPG91dGZpbGUubWFlPic=

> <r_epik_Ionization_Penalty>
  0.0833

> <r_epik_Ionization_Penalty_Charging>
  0.0833

> <r_epik_Ionization_Penalty_Neutral>
  0.0000

> <r_epik_State_Penalty>
  0.0740

> <r_epik_Charging_Adjusted_Penalty>
0.157249

> <i_epik_Tot_Q>
1

> <i_epik_Tot_abs_Q>
1

> <s_lp_Force_Field>
OPLS3e

> <r_lp_Energy>
34.726

> <b_lp_Chiralities_Consistent>
1

> <s_lp_Variant>
/home/yujie/leadopt/data/result/selection/LRRK2/lig_22.sdf:1-1

> <s_i_glide_gridfile>
glide-grid_LRRK2

> <i_i_glide_lignum>
1

> <i_i_glide_rotatable_bonds>
6

> <r_i_docking_score>
-8.81726644791422

> <r_i_glide_ligand_efficiency>
-0.244924067997617

> <r_i_glide_ligand_efficiency_sa>
-0.80872145306543

> <r_i_glide_ligand_efficiency_ln>
-1.9236893239246

> <r_i_glide_gscore>
-8.89122654791423

> <r_i_glide_lipo>
-3.75244700268446

> <r_i_glide_hbond>
0

> <r_i_glide_metal>
-0

> <r_i_glide_rewards>
-1.87228527690062

> <r_i_glide_evdw>
-52.9952735900879

> <r_i_glide_ecoul>
-6.34803819656372

> <r_i_glide_erotb>
0.349218599287651

> <r_i_glide_esite>
-0.0137434586278367

> <r_i_glide_emodel>
-91.5975060364461

> <r_i_glide_energy>
-59.3433117866516

> <r_i_glide_einternal>
1.77417099475861

> <i_i_glide_confnum>
12

> <i_i_glide_posenum>
208

> <r_i_glide_eff_state_penalty>
0.0739601

$$$$
