/home/yujie/leadopt/data/result/selection/LRRK2/lig_9.sdf:1
                    3D
 Schrodinger Suite 2020-3.
 50 54  0  0  1  0            999 V2000
   -0.5066   -2.5638   21.7640 C   0  0  0  0  0  0
   -0.0293   -3.4951   20.6646 C   0  0  0  0  0  0
   -0.8085   -4.5115   20.1479 N   0  0  0  0  0  0
   -2.1695   -4.9024   20.5673 C   0  0  0  0  0  0
   -3.0451   -5.2944   19.3460 C   0  0  0  0  0  0
   -4.3777   -5.9182   19.8022 C   0  0  0  0  0  0
   -4.1157   -7.0237   20.6670 O   0  0  0  0  0  0
   -3.4415   -6.6738   21.8750 C   0  0  0  0  0  0
   -2.0528   -6.0912   21.5492 C   0  0  0  0  0  0
   -0.1611   -5.2168   19.2080 N   0  0  0  0  0  0
    0.9989   -4.6267   19.0844 C   0  0  0  0  0  0
    1.1744   -3.5523   19.9704 C   0  0  0  0  0  0
    2.2518   -2.7119   20.1388 N   0  0  0  0  0  0
    3.5605   -2.8174   19.6500 C   0  0  0  0  0  0
    3.9339   -3.9046   18.9225 N   0  0  0  0  0  0
    5.1959   -3.9130   18.4075 C   0  0  0  0  0  0
    5.5831   -4.9557   17.5351 C   0  0  0  0  0  0
    6.8522   -4.9628   16.9395 C   0  0  0  0  0  0
    7.2319   -6.0502   15.9168 C   0  0  0  0  0  0
    6.5075   -7.3863   15.8677 C   0  0  0  0  0  0
    6.2724   -6.3687   14.7825 C   0  0  0  0  0  0
    8.6616   -6.1110   15.5557 C   0  0  0  0  0  0
    9.7834   -6.1618   15.2749 N   0  0  0  0  0  0
    7.7568   -3.9424   17.2627 C   0  0  0  0  0  0
    7.4105   -2.9026   18.1216 C   0  0  0  0  0  0
    6.1143   -2.8588   18.6776 C   0  0  0  0  0  0
    5.6196   -1.8023   19.4719 C   0  0  0  0  0  0
    4.3553   -1.7624   19.9514 N   0  0  0  0  0  0
    0.2835   -1.8865   22.0938 H   0  0  0  0  0  0
   -1.3389   -1.9414   21.4374 H   0  0  0  0  0  0
   -0.8392   -3.1142   22.6438 H   0  0  0  0  0  0
   -2.5969   -4.0230   21.0529 H   0  0  0  0  0  0
   -3.2861   -4.3973   18.7737 H   0  0  0  0  0  0
   -2.5274   -5.9581   18.6502 H   0  0  0  0  0  0
   -5.0047   -5.1789   20.3063 H   0  0  0  0  0  0
   -4.9413   -6.2709   18.9365 H   0  0  0  0  0  0
   -4.0425   -5.9643   22.4502 H   0  0  0  0  0  0
   -3.3388   -7.5689   22.4928 H   0  0  0  0  0  0
   -1.3733   -6.8588   21.1750 H   0  0  0  0  0  0
   -1.6268   -5.7405   22.4902 H   0  0  0  0  0  0
    1.7188   -4.9901   18.3650 H   0  0  0  0  0  0
    2.1248   -1.8692   20.6785 H   0  0  0  0  0  0
    4.8579   -5.7203   17.3064 H   0  0  0  0  0  0
    5.7025   -7.6045   16.5686 H   0  0  0  0  0  0
    7.0806   -8.2839   15.6265 H   0  0  0  0  0  0
    6.6769   -6.5654   13.7896 H   0  0  0  0  0  0
    5.3110   -5.8562   14.7442 H   0  0  0  0  0  0
    8.7476   -3.9305   16.8350 H   0  0  0  0  0  0
    8.1149   -2.1127   18.3381 H   0  0  0  0  0  0
    6.2596   -0.9635   19.7072 H   0  0  0  0  0  0
  1  2  1  0  0  0
  1 29  1  0  0  0
  1 30  1  0  0  0
  1 31  1  0  0  0
  2  3  1  0  0  0
  2 12  2  0  0  0
  3  4  1  0  0  0
  3 10  1  0  0  0
  4  9  1  0  0  0
  4  5  1  0  0  0
  4 32  1  0  0  0
  5  6  1  0  0  0
  5 33  1  0  0  0
  5 34  1  0  0  0
  6  7  1  0  0  0
  6 35  1  0  0  0
  6 36  1  0  0  0
  7  8  1  0  0  0
  8  9  1  0  0  0
  8 37  1  0  0  0
  8 38  1  0  0  0
  9 39  1  0  0  0
  9 40  1  0  0  0
 10 11  2  0  0  0
 11 12  1  0  0  0
 11 41  1  0  0  0
 12 13  1  0  0  0
 13 14  1  0  0  0
 13 42  1  0  0  0
 14 28  1  0  0  0
 14 15  2  0  0  0
 15 16  1  0  0  0
 16 17  1  0  0  0
 16 26  2  0  0  0
 17 18  2  0  0  0
 17 43  1  0  0  0
 18 19  1  0  0  0
 18 24  1  0  0  0
 19 21  1  0  0  0
 19 20  1  0  0  0
 19 22  1  0  0  0
 20 21  1  0  0  0
 20 44  1  0  0  0
 20 45  1  0  0  0
 21 46  1  0  0  0
 21 47  1  0  0  0
 22 23  3  0  0  0
 24 25  2  0  0  0
 24 48  1  0  0  0
 25 26  1  0  0  0
 25 49  1  0  0  0
 26 27  1  0  0  0
 27 28  2  0  0  0
 27 50  1  0  0  0
M  END
> <s_m_source_file>
/home/yujie/leadopt/data/result/selection/LRRK2/lig_9.sdf

> <i_m_source_file_index>
1

> <i_lp_mmshare_version>
51139

> <i_f3d_flags>
0

> <s_epik_input>
W0NIMl0xW0NIMl1PW0NIMl1bQ0gyXVtDSF0xbihjMltDSDNdKW5bY0hdYzJbTkhdYyhuMyluW2NIXWMoYzM0KVtjSF1bY0hdYyhbY0hdNClDNShDI04pW0NIMl1bQ0gyXTU=

> <s_epik_cmdline>
J2VwaWtfcHl0aG9uJywgJy1waHQnLCAnMi4wJywgJy1waCcsICc3LjAnLCAnLXRuJywgJzgnLCAnLW1hJywgJzIwMCcsICctaW1hZScsICc8aW5maWxlLm1hZT4nLCAnLW9tYWUnLCAnPG91dGZpbGUubWFlPic=

> <r_epik_Ionization_Penalty>
  0.0027

> <r_epik_Ionization_Penalty_Charging>
  0.0000

> <r_epik_Ionization_Penalty_Neutral>
  0.0027

> <r_epik_State_Penalty>
  0.0018

> <r_epik_Charging_Adjusted_Penalty>
0.00178555

> <i_epik_Tot_Q>
0

> <i_epik_Tot_abs_Q>
0

> <s_lp_Force_Field>
OPLS3e

> <r_lp_Energy>
22.7184

> <b_lp_Chiralities_Consistent>
1

> <s_lp_Variant>
/home/yujie/leadopt/data/result/selection/LRRK2/lig_9.sdf:1-1

> <s_i_glide_gridfile>
glide-grid_LRRK2

> <i_i_glide_lignum>
1

> <i_i_glide_rotatable_bonds>
4

> <r_i_docking_score>
-8.96531013509762

> <r_i_glide_ligand_efficiency>
-0.320189647682058

> <r_i_glide_ligand_efficiency_sa>
-0.97228435198014

> <r_i_glide_ligand_efficiency_ln>
-2.06945681212428

> <r_i_glide_gscore>
-8.96709568509761

> <r_i_glide_lipo>
-3.4985399164981

> <r_i_glide_hbond>
-0.213022942356786

> <r_i_glide_metal>
-0

> <r_i_glide_rewards>
-2.98273682044649

> <r_i_glide_evdw>
-44.4822387695312

> <r_i_glide_ecoul>
-4.00223588943481

> <r_i_glide_erotb>
0.551651316095547

> <r_i_glide_esite>
0

> <r_i_glide_emodel>
-73.2636174419236

> <r_i_glide_energy>
-48.4844746589661

> <r_i_glide_einternal>
2.04344916343689

> <i_i_glide_confnum>
64

> <i_i_glide_posenum>
186

> <r_i_glide_eff_state_penalty>
0.00178555

$$$$
