/home/yujie/leadopt/data/result/selection/LRRK2/lig_6.sdf:1
                    3D
 Schrodinger Suite 2020-3.
 49 53  0  0  1  0            999 V2000
   -0.1636   -2.5631   21.8772 C   0  0  0  0  0  0
    0.1457   -3.4794   20.7085 C   0  0  0  0  0  0
   -0.6256   -4.5592   20.2875 N   0  0  0  0  0  0
   -1.8458   -5.1927   20.8716 C   0  0  0  0  0  0
   -2.7836   -4.2866   21.7019 C   0  0  0  0  0  0
   -3.6029   -3.3491   20.7971 C   0  0  0  0  0  0
   -4.3456   -4.1299   19.8587 O   0  0  0  0  0  0
   -3.5591   -4.9573   18.9955 C   0  0  0  0  0  0
   -2.7280   -5.9458   19.8386 C   0  0  0  0  0  0
   -0.0436   -5.1958   19.2568 N   0  0  0  0  0  0
    1.0489   -4.5314   18.9956 C   0  0  0  0  0  0
    1.2569   -3.4607   19.8675 C   0  0  0  0  0  0
    2.3019   -2.5689   19.9369 N   0  0  0  0  0  0
    3.6270   -2.7093   19.5077 C   0  0  0  0  0  0
    4.4344   -1.6940   19.8859 N   0  0  0  0  0  0
    5.7183   -1.7633   19.4743 C   0  0  0  0  0  0
    6.2236   -2.7984   18.6622 C   0  0  0  0  0  0
    5.2933   -3.8189   18.3016 C   0  0  0  0  0  0
    5.7162   -4.8403   17.3985 C   0  0  0  0  0  0
    4.7056   -5.8605   16.8986 C   0  0  0  0  0  0
    5.0455   -7.2977   16.5678 C   0  0  0  0  0  0
    4.2246   -6.9668   17.7951 C   0  0  0  0  0  0
    7.0296   -4.8487   16.9255 C   0  0  0  0  0  0
    7.9349   -3.8705   17.3231 C   0  0  0  0  0  0
    7.5492   -2.8453   18.1818 C   0  0  0  0  0  0
    4.0056   -3.7856   18.7669 N   0  0  0  0  0  0
    0.6098   -1.8068   22.0086 H   0  0  0  0  0  0
   -1.0931   -2.0117   21.7426 H   0  0  0  0  0  0
   -0.2145   -3.1055   22.8208 H   0  0  0  0  0  0
   -1.4262   -5.9387   21.5480 H   0  0  0  0  0  0
   -3.4555   -4.9303   22.2702 H   0  0  0  0  0  0
   -2.2821   -3.7772   22.5166 H   0  0  0  0  0  0
   -4.3028   -2.7651   21.3944 H   0  0  0  0  0  0
   -2.9604   -2.6328   20.2850 H   0  0  0  0  0  0
   -4.2279   -5.4964   18.3235 H   0  0  0  0  0  0
   -2.9144   -4.3427   18.3657 H   0  0  0  0  0  0
   -2.1455   -6.6257   19.2166 H   0  0  0  0  0  0
   -3.3790   -6.6405   20.3697 H   0  0  0  0  0  0
    1.7045   -4.8374   18.1933 H   0  0  0  0  0  0
    2.1697   -1.7119   20.4522 H   0  0  0  0  0  0
    6.3707   -0.9621   19.7824 H   0  0  0  0  0  0
    3.9464   -5.4073   16.2591 H   0  0  0  0  0  0
    6.0723   -7.6431   16.6852 H   0  0  0  0  0  0
    4.5534   -7.7618   15.7120 H   0  0  0  0  0  0
    3.1495   -7.1543   17.8121 H   0  0  0  0  0  0
    4.6743   -7.0596   18.7829 H   0  0  0  0  0  0
    7.3508   -5.6126   16.2330 H   0  0  0  0  0  0
    8.9477   -3.8987   16.9487 H   0  0  0  0  0  0
    8.2522   -2.0754   18.4667 H   0  0  0  0  0  0
  1  2  1  0  0  0
  1 27  1  0  0  0
  1 28  1  0  0  0
  1 29  1  0  0  0
  2  3  1  0  0  0
  2 12  2  0  0  0
  3  4  1  0  0  0
  3 10  1  0  0  0
  4  9  1  0  0  0
  4  5  1  0  0  0
  4 30  1  0  0  0
  5  6  1  0  0  0
  5 31  1  0  0  0
  5 32  1  0  0  0
  6  7  1  0  0  0
  6 33  1  0  0  0
  6 34  1  0  0  0
  7  8  1  0  0  0
  8  9  1  0  0  0
  8 35  1  0  0  0
  8 36  1  0  0  0
  9 37  1  0  0  0
  9 38  1  0  0  0
 10 11  2  0  0  0
 11 12  1  0  0  0
 11 39  1  0  0  0
 12 13  1  0  0  0
 13 14  1  0  0  0
 13 40  1  0  0  0
 14 26  1  0  0  0
 14 15  2  0  0  0
 15 16  1  0  0  0
 16 17  2  0  0  0
 16 41  1  0  0  0
 17 25  1  0  0  0
 17 18  1  0  0  0
 18 19  1  0  0  0
 18 26  2  0  0  0
 19 20  1  0  0  0
 19 23  2  0  0  0
 20 22  1  0  0  0
 20 21  1  0  0  0
 20 42  1  0  0  0
 21 22  1  0  0  0
 21 43  1  0  0  0
 21 44  1  0  0  0
 22 45  1  0  0  0
 22 46  1  0  0  0
 23 24  1  0  0  0
 23 47  1  0  0  0
 24 25  2  0  0  0
 24 48  1  0  0  0
 25 49  1  0  0  0
M  END
> <s_m_source_file>
/home/yujie/leadopt/data/result/selection/LRRK2/lig_6.sdf

> <i_m_source_file_index>
1

> <i_lp_mmshare_version>
51139

> <i_f3d_flags>
0

> <s_epik_input>
W0NIMl0xW0NIMl1PW0NIMl1bQ0gyXVtDSF0xbihjMltDSDNdKW5bY0hdYzJbTkhdYyhuW2NIXTMpbmMoYzM0KWMoW0NIXTVbQ0gyXVtDSDJdNSlbY0hdW2NIXVtjSF00

> <s_epik_cmdline>
J2VwaWtfcHl0aG9uJywgJy1waHQnLCAnMi4wJywgJy1waCcsICc3LjAnLCAnLXRuJywgJzgnLCAnLW1hJywgJzIwMCcsICctaW1hZScsICc8aW5maWxlLm1hZT4nLCAnLW9tYWUnLCAnPG91dGZpbGUubWFlPic=

> <r_epik_Ionization_Penalty>
  0.0029

> <r_epik_Ionization_Penalty_Charging>
  0.0000

> <r_epik_Ionization_Penalty_Neutral>
  0.0029

> <r_epik_State_Penalty>
  0.0018

> <r_epik_Charging_Adjusted_Penalty>
0.00178555

> <i_epik_Tot_Q>
0

> <i_epik_Tot_abs_Q>
0

> <s_lp_Force_Field>
OPLS3e

> <r_lp_Energy>
18.1105

> <b_lp_Chiralities_Consistent>
1

> <s_lp_Variant>
/home/yujie/leadopt/data/result/selection/LRRK2/lig_6.sdf:1-1

> <s_i_glide_gridfile>
glide-grid_LRRK2

> <i_i_glide_lignum>
1

> <i_i_glide_rotatable_bonds>
4

> <r_i_docking_score>
-8.90202231802958

> <r_i_glide_ligand_efficiency>
-0.342385473770368

> <r_i_glide_ligand_efficiency_sa>
-1.01431561882293

> <r_i_glide_ligand_efficiency_ln>
-2.09061073147155

> <r_i_glide_gscore>
-8.90380786802958

> <r_i_glide_lipo>
-3.71589726631585

> <r_i_glide_hbond>
-0.308252189810076

> <r_i_glide_metal>
-0

> <r_i_glide_rewards>
-2.72880672651352

> <r_i_glide_evdw>
-41.8049621582031

> <r_i_glide_ecoul>
-3.31615996360779

> <r_i_glide_erotb>
0.436820417061192

> <r_i_glide_esite>
0

> <r_i_glide_emodel>
-67.4037921107511

> <r_i_glide_energy>
-45.1211221218109

> <r_i_glide_einternal>
2.32567644119263

> <i_i_glide_confnum>
122

> <i_i_glide_posenum>
104

> <r_i_glide_eff_state_penalty>
0.00178555

$$$$
