/home/yujie/leadopt/data/result/selection/LRRK2/lig_12.sdf:1
                    3D
 Schrodinger Suite 2020-3.
 66 71  0  0  1  0            999 V2000
   -0.6067   -2.4173   21.8007 C   0  0  0  0  0  0
   -0.2064   -3.4539   20.7677 C   0  0  0  0  0  0
   -1.0811   -4.4096   20.2868 N   0  0  0  0  0  0
   -2.4850   -4.6348   20.6894 C   0  0  0  0  0  0
   -3.3666   -5.0323   19.4733 C   0  0  0  0  0  0
   -4.7647   -5.4891   19.9276 C   0  0  0  0  0  0
   -4.6361   -6.5473   20.8754 O   0  0  0  0  0  0
   -3.9599   -6.1744   22.0757 C   0  0  0  0  0  0
   -2.5128   -5.7532   21.7579 C   0  0  0  0  0  0
   -0.4902   -5.2406   19.4152 N   0  0  0  0  0  0
    0.7330   -4.7933   19.2977 C   0  0  0  0  0  0
    1.0041   -3.6849   20.1149 C   0  0  0  0  0  0
    2.1629   -2.9580   20.2816 N   0  0  0  0  0  0
    3.4355   -3.1160   19.7122 C   0  0  0  0  0  0
    3.6821   -4.1620   18.8784 N   0  0  0  0  0  0
    4.9053   -4.2209   18.2846 C   0  0  0  0  0  0
    5.1426   -5.2057   17.2999 C   0  0  0  0  0  0
    6.3341   -5.2076   16.5628 C   0  0  0  0  0  0
    6.4728   -6.1387   15.3497 C   0  0  1  0  0  0
    6.5083   -7.6369   15.7317 C   0  0  0  0  0  0
    6.5418   -8.5613   14.5021 C   0  0  0  0  0  0
    5.3230   -8.2336   13.6063 N   0  3  2  0  0  0
    5.1214   -9.2277   12.4291 C   0  0  0  0  0  0
    6.3383   -9.7362   11.6352 C   0  0  0  0  0  0
    6.1577  -11.1039   12.2056 O   0  0  0  0  0  0
    4.8564  -10.6930   12.8057 C   0  0  0  0  0  0
    5.4173   -6.7819   13.0851 C   0  0  0  0  0  0
    5.4028   -5.8138   14.2758 C   0  0  0  0  0  0
    7.3479   -4.2987   16.8920 C   0  0  0  0  0  0
    7.1611   -3.3365   17.8838 C   0  0  0  0  0  0
    5.9201   -3.2582   18.5612 C   0  0  0  0  0  0
    5.5608   -2.2463   19.4811 C   0  0  0  0  0  0
    4.3315   -2.1525   20.0496 N   0  0  0  0  0  0
    0.2274   -1.7681   22.0724 H   0  0  0  0  0  0
   -1.3983   -1.7625   21.4349 H   0  0  0  0  0  0
   -0.9630   -2.8810   22.7219 H   0  0  0  0  0  0
   -2.8316   -3.6839   21.0964 H   0  0  0  0  0  0
   -2.9050   -5.7969   18.8420 H   0  0  0  0  0  0
   -3.5078   -4.1646   18.8279 H   0  0  0  0  0  0
   -5.3390   -5.8509   19.0722 H   0  0  0  0  0  0
   -5.3327   -4.6602   20.3564 H   0  0  0  0  0  0
   -3.9624   -7.0270   22.7535 H   0  0  0  0  0  0
   -4.5014   -5.3717   22.5773 H   0  0  0  0  0  0
   -2.0762   -5.3748   22.6824 H   0  0  0  0  0  0
   -1.8979   -6.6079   21.4649 H   0  0  0  0  0  0
    1.4275   -5.2865   18.6357 H   0  0  0  0  0  0
    2.1287   -2.1298   20.8575 H   0  0  0  0  0  0
    4.3487   -5.8984   17.0651 H   0  0  0  0  0  0
    7.4445   -5.8976   14.9115 H   0  0  0  0  0  0
    7.4249   -7.8381   16.2848 H   0  0  0  0  0  0
    5.6626   -7.9046   16.3640 H   0  0  0  0  0  0
    7.4430   -8.3967   13.9079 H   0  0  0  0  0  0
    6.4881   -9.6148   14.7773 H   0  0  0  0  0  0
    4.3286   -8.7811   11.8268 H   0  0  0  0  0  0
    6.2128   -9.7770   10.5523 H   0  0  0  0  0  0
    7.3220   -9.3588   11.9112 H   0  0  0  0  0  0
    4.8501  -10.9352   13.8709 H   0  0  0  0  0  0
    4.0407  -11.1824   12.2691 H   0  0  0  0  0  0
    6.3324   -6.7144   12.4883 H   0  0  0  0  0  0
    4.5607   -6.6000   12.4297 H   0  0  0  0  0  0
    4.4023   -5.8094   14.7093 H   0  0  0  0  0  0
    5.5882   -4.8157   13.8742 H   0  0  0  0  0  0
    8.2769   -4.3029   16.3407 H   0  0  0  0  0  0
    7.9379   -2.6140   18.0995 H   0  0  0  0  0  0
    6.2703   -1.4674   19.7324 H   0  0  0  0  0  0
    4.4963   -8.2881   14.1875 H   0  0  0  0  0  0
  1  2  1  0  0  0
  1 34  1  0  0  0
  1 35  1  0  0  0
  1 36  1  0  0  0
  2  3  1  0  0  0
  2 12  2  0  0  0
  3  4  1  0  0  0
  3 10  1  0  0  0
  4  9  1  0  0  0
  4  5  1  0  0  0
  4 37  1  0  0  0
  5  6  1  0  0  0
  5 38  1  0  0  0
  5 39  1  0  0  0
  6  7  1  0  0  0
  6 40  1  0  0  0
  6 41  1  0  0  0
  7  8  1  0  0  0
  8  9  1  0  0  0
  8 42  1  0  0  0
  8 43  1  0  0  0
  9 44  1  0  0  0
  9 45  1  0  0  0
 10 11  2  0  0  0
 11 12  1  0  0  0
 11 46  1  0  0  0
 12 13  1  0  0  0
 13 14  1  0  0  0
 13 47  1  0  0  0
 14 33  1  0  0  0
 14 15  2  0  0  0
 15 16  1  0  0  0
 16 17  1  0  0  0
 16 31  2  0  0  0
 17 18  2  0  0  0
 17 48  1  0  0  0
 18 19  1  0  0  0
 18 29  1  0  0  0
 19 28  1  0  0  0
 19 20  1  0  0  0
 19 49  1  0  0  0
 20 21  1  0  0  0
 20 50  1  0  0  0
 20 51  1  0  0  0
 21 22  1  0  0  0
 21 52  1  0  0  0
 21 53  1  0  0  0
 22 23  1  0  0  0
 22 27  1  0  0  0
 22 66  1  0  0  0
 23 26  1  0  0  0
 23 24  1  0  0  0
 23 54  1  0  0  0
 24 25  1  0  0  0
 24 55  1  0  0  0
 24 56  1  0  0  0
 25 26  1  0  0  0
 26 57  1  0  0  0
 26 58  1  0  0  0
 27 28  1  0  0  0
 27 59  1  0  0  0
 27 60  1  0  0  0
 28 61  1  0  0  0
 28 62  1  0  0  0
 29 30  2  0  0  0
 29 63  1  0  0  0
 30 31  1  0  0  0
 30 64  1  0  0  0
 31 32  1  0  0  0
 32 33  2  0  0  0
 32 65  1  0  0  0
M  CHG  1  22   1
M  END
> <s_m_source_file>
/home/yujie/leadopt/data/result/selection/LRRK2/lig_12.sdf

> <i_m_source_file_index>
1

> <i_lp_mmshare_version>
51139

> <i_f3d_flags>
0

> <s_epik_input>
W0NIMl0xW0NIMl1PW0NIMl1bQ0gyXVtDSF0xbihjMltDSDNdKW5bY0hdYzJbTkhdYyhuMyluW2NIXWMoYzM0KVtjSF1bY0hdYyhbY0hdNClbQ0hdNVtDSDJdW0NIMl1OKFtDSDJdW0NIMl01KVtDSF02W0NIMl1PW0NIMl02

> <s_epik_cmdline>
J2VwaWtfcHl0aG9uJywgJy1waHQnLCAnMi4wJywgJy1waCcsICc3LjAnLCAnLXRuJywgJzgnLCAnLW1hJywgJzIwMCcsICctaW1hZScsICc8aW5maWxlLm1hZT4nLCAnLW9tYWUnLCAnPG91dGZpbGUubWFlPic=

> <r_epik_Ionization_Penalty>
  0.0981

> <r_epik_Ionization_Penalty_Charging>
  0.0953

> <r_epik_Ionization_Penalty_Neutral>
  0.0028

> <r_epik_State_Penalty>
  0.0855

> <r_epik_Charging_Adjusted_Penalty>
0.180866

> <i_epik_Tot_Q>
1

> <i_epik_Tot_abs_Q>
1

> <s_lp_Force_Field>
OPLS3e

> <r_lp_Energy>
30.119

> <b_lp_Chiralities_Consistent>
1

> <s_lp_Variant>
/home/yujie/leadopt/data/result/selection/LRRK2/lig_12.sdf:1-1

> <s_i_glide_gridfile>
glide-grid_LRRK2

> <i_i_glide_lignum>
1

> <i_i_glide_rotatable_bonds>
5

> <r_i_docking_score>
-8.03723844417522

> <r_i_glide_ligand_efficiency>
-0.243552680126522

> <r_i_glide_ligand_efficiency_sa>
-0.781203581757817

> <r_i_glide_ligand_efficiency_ln>
-1.78744021539107

> <r_i_glide_gscore>
-8.12276634417523

> <r_i_glide_lipo>
-3.54913455441085

> <r_i_glide_hbond>
0

> <r_i_glide_metal>
-0

> <r_i_glide_rewards>
-1.88950001533449

> <r_i_glide_evdw>
-48.2989158630371

> <r_i_glide_ecoul>
-5.07839012145996

> <r_i_glide_erotb>
0.495813500206041

> <r_i_glide_esite>
-0.00324096326508289

> <r_i_glide_emodel>
-83.4425507690871

> <r_i_glide_energy>
-53.3773059844971

> <r_i_glide_einternal>
2.72660374641418

> <i_i_glide_confnum>
301

> <i_i_glide_posenum>
165

> <r_i_glide_eff_state_penalty>
0.0855279

$$$$
