ejm_43
                    3D
 Schrodinger Suite 2021-2.
 38 39  0  0  1  0            999 V2000
   -1.9445   21.4797  -27.4683 C   0  0  0  0  0  0
   -2.8632   20.7119  -28.1988 C   0  0  0  0  0  0
   -3.5534   21.2514  -29.3113 C   0  0  0  0  0  0
   -3.3293   22.5988  -29.6631 C   0  0  0  0  0  0
   -2.3827   23.3563  -28.9359 C   0  0  0  0  0  0
   -1.6800   22.7948  -27.8623 C   0  0  0  0  0  0
   -2.0771   25.0098  -29.2931 Cl  0  0  0  0  0  0
   -4.0378   23.1674  -30.8564 C   0  0  0  0  0  0
   -4.1324   22.5228  -31.9012 O   0  0  0  0  0  0
   -4.5575   24.3844  -30.6896 N   0  0  0  0  0  0
   -5.3245   25.1116  -31.6048 C   0  0  0  0  0  0
   -5.9870   24.5545  -32.7186 C   0  0  0  0  0  0
   -6.7937   25.3971  -33.4916 C   0  0  0  0  0  0
   -6.9471   26.7077  -33.2275 N   0  0  0  0  0  0
   -6.3163   27.2531  -32.1644 C   0  0  0  0  0  0
   -5.5090   26.4651  -31.3159 C   0  0  0  0  0  0
   -6.5301   28.6750  -31.9113 N   0  0  0  0  0  0
   -5.7533   29.4523  -31.1562 C   0  0  0  0  0  0
   -4.7513   29.0367  -30.5817 O   0  0  0  0  0  0
   -6.2573   30.8643  -31.1063 C   0  0  0  0  0  0
   -4.5885   20.2479  -30.3076 Cl  0  0  0  0  0  0
   -5.6428   31.6543  -32.2235 C   0  0  0  0  0  0
   -1.4474   21.0541  -26.6085 H   0  0  0  0  0  0
   -3.0560   19.6872  -27.9159 H   0  0  0  0  0  0
   -0.9346   23.3757  -27.3388 H   0  0  0  0  0  0
   -4.4106   24.8815  -29.8228 H   0  0  0  0  0  0
   -5.8631   23.5071  -32.9516 H   0  0  0  0  0  0
   -7.3275   25.0019  -34.3434 H   0  0  0  0  0  0
   -5.0355   26.9013  -30.4487 H   0  0  0  0  0  0
   -7.3612   28.9748  -32.4006 H   0  0  0  0  0  0
   -5.8832   31.4826  -29.7919 C   0  0  0  0  0  0
   -7.3421   30.8668  -31.2134 H   0  0  0  0  0  0
   -6.3298   30.9085  -28.9801 H   0  0  0  0  0  0
   -4.7985   31.4800  -29.6848 H   0  0  0  0  0  0
   -6.2494   32.5086  -29.7556 H   0  0  0  0  0  0
   -5.9146   31.2050  -33.1786 H   0  0  0  0  0  0
   -6.0090   32.6803  -32.1872 H   0  0  0  0  0  0
   -4.5580   31.6517  -32.1164 H   0  0  0  0  0  0
  1  2  1  0  0  0
  1  6  2  0  0  0
  1 23  1  0  0  0
  2  3  2  0  0  0
  2 24  1  0  0  0
  3  4  1  0  0  0
  3 21  1  0  0  0
  4  5  2  0  0  0
  4  8  1  0  0  0
  5  6  1  0  0  0
  5  7  1  0  0  0
  6 25  1  0  0  0
  8  9  2  0  0  0
  8 10  1  0  0  0
 10 11  1  0  0  0
 10 26  1  0  0  0
 11 12  1  0  0  0
 11 16  2  0  0  0
 12 13  2  0  0  0
 12 27  1  0  0  0
 13 14  1  0  0  0
 13 28  1  0  0  0
 14 15  2  0  0  0
 15 16  1  0  0  0
 15 17  1  0  0  0
 16 29  1  0  0  0
 17 18  1  0  0  0
 17 30  1  0  0  0
 18 19  2  0  0  0
 18 20  1  0  0  0
 20 22  1  0  0  0
 20 31  1  0  0  0
 20 32  1  0  0  0
 22 36  1  0  0  0
 22 37  1  0  0  0
 22 38  1  0  0  0
 31 33  1  0  0  0
 31 34  1  0  0  0
 31 35  1  0  0  0
M  END
> <s_m_entry_id>
759

> <s_m_entry_name>
Tyk2_ejm_43.1

> <r_user_dG.exp>
-8.26

> <r_m_Molecular_weight>
352.22285

> <s_m_Source_Path>
C:\Users\yujiethinkpad\Desktop\05A\Tyk2

> <s_m_Source_File>
Tyk2_ejm_43.sdf

> <i_m_Source_File_Index>
1

> <s_m_job_name>
align_ligands_0658

> <i_phase_Input_Structure_Number>
10

> <i_phase_Structure_Number>
10

> <r_phase_Similarity_to_Reference>
0.964337433653836

> <i_phase_Reference_Structure>
16

> <s_phase_Alignment_Method>
snapped core

> <s_phase_Alignment_Reason>


> <s_phase_Core_SMARTS>
a1aaaaa1A(=A)Aa2aaaaa2

> <s_f3d_frozen_atoms>
3 2 1 6 5 4 8 9 10 11 12 13 14 15 16 21 24 23 25 7 9 26 27 28 29

> <s_fepmapper_entryid>
7

> <i_fepmapper_bias>
0

> <i_fepmapper_affinity>
1

> <r_fepmapper_exp_dG>
-8.26

> <i_fepmapper_unit>
1

> <s_m_subgroup_title>
align_ligands_0658

> <s_m_subgroupid>
align_ligands_0658

> <b_m_subgroup_collapsed>
0

$$$$
