CAT-4i
                    3D
 Schrodinger Suite 2021-2.
 44 47  0  0  1  0            999 V2000
   11.6744   -2.0785    1.1315 C   0  0  0  0  0  0
   12.8825   -2.5349    0.4671 N   0  0  0  0  0  0
   14.1019   -2.6231    1.0447 C   0  0  0  0  0  0
   14.1861   -2.4823    2.3656 N   0  0  0  0  0  0
   15.0794   -2.8321    0.2653 N   0  0  0  0  0  0
   14.5743   -3.0162   -1.0535 C   0  0  2  0  0  0
   14.8450   -4.4843   -1.3982 C   0  0  0  0  0  0
   16.1561   -4.9942   -1.2936 C   0  0  0  0  0  0
   16.4189   -6.3489   -1.5410 C   0  0  0  0  0  0
   15.3737   -7.2123   -1.8761 C   0  0  0  0  0  0
   14.0708   -6.7232   -1.9776 C   0  0  0  0  0  0
   13.8080   -5.3725   -1.7463 C   0  0  0  0  0  0
   15.1568   -1.9529   -1.9705 C   0  0  0  0  0  0
   15.6771   -2.2934   -3.2259 C   0  0  0  0  0  0
   16.1081   -1.2923   -4.1022 C   0  0  0  0  0  0
   16.0074    0.0555   -3.7416 C   0  0  0  0  0  0
   15.4789    0.4180   -2.5002 C   0  0  0  0  0  0
   15.2943    1.8190   -2.1558 C   0  0  0  0  0  0
   16.3883    2.6359   -1.9126 C   0  0  0  0  0  0
   16.1786    3.9217   -1.4285 C   0  0  0  0  0  0
   14.8768    4.4090   -1.3265 C   0  0  0  0  0  0
   13.8361    3.5444   -1.6892 C   0  0  0  0  0  0
   14.0307    2.2696   -2.0777 N   0  0  0  0  0  0
   15.0967   -0.5901   -1.6066 C   0  0  0  0  0  0
   13.0870   -2.7033   -0.8181 C   0  0  0  0  0  0
   12.2401   -2.6018   -1.7019 O   0  0  0  0  0  0
   11.5731   -2.4718    2.1432 H   0  0  0  0  0  0
   11.6843   -0.9920    1.1642 H   0  0  0  0  0  0
   10.7876   -2.3848    0.5758 H   0  0  0  0  0  0
   15.1170   -2.5502    2.7817 H   0  0  0  0  0  0
   16.9674   -4.3399   -1.0055 H   0  0  0  0  0  0
   17.4269   -6.7250   -1.4440 H   0  0  0  0  0  0
   15.5694   -8.2618   -2.0360 H   0  0  0  0  0  0
   13.2643   -7.3949   -2.2273 H   0  0  0  0  0  0
   12.7816   -5.0564   -1.8421 H   0  0  0  0  0  0
   15.7307   -3.3215   -3.5507 H   0  0  0  0  0  0
   16.5034   -1.5571   -5.0724 H   0  0  0  0  0  0
   16.3166    0.8175   -4.4433 H   0  0  0  0  0  0
   17.3845    2.2608   -2.0538 H   0  0  0  0  0  0
   17.0289    4.5148   -1.1608 H   0  0  0  0  0  0
   14.6767    5.4132   -0.9831 H   0  0  0  0  0  0
   12.8094    3.8748   -1.6317 H   0  0  0  0  0  0
   14.6842   -0.2954   -0.6520 H   0  0  0  0  0  0
   13.4246   -2.2817    3.0007 H   0  0  0  0  0  0
  1 27  1  0  0  0
  1 28  1  0  0  0
  1 29  1  0  0  0
  1  2  1  0  0  0
  2 25  1  0  0  0
  2  3  1  0  0  0
  3  4  1  0  0  0
  3  5  2  0  0  0
  4 30  1  0  0  0
  4 44  1  0  0  0
  5  6  1  0  0  0
  6 25  1  0  0  0
  6  7  1  0  0  0
  6 13  1  0  0  0
  7  8  2  0  0  0
  7 12  1  0  0  0
  8  9  1  0  0  0
  8 31  1  0  0  0
  9 10  2  0  0  0
  9 32  1  0  0  0
 10 11  1  0  0  0
 10 33  1  0  0  0
 11 12  2  0  0  0
 11 34  1  0  0  0
 12 35  1  0  0  0
 13 14  2  0  0  0
 13 24  1  0  0  0
 14 15  1  0  0  0
 14 36  1  0  0  0
 15 16  2  0  0  0
 15 37  1  0  0  0
 16 17  1  0  0  0
 16 38  1  0  0  0
 17 18  1  0  0  0
 17 24  2  0  0  0
 18 19  2  0  0  0
 18 23  1  0  0  0
 19 20  1  0  0  0
 19 39  1  0  0  0
 20 21  2  0  0  0
 20 40  1  0  0  0
 21 22  1  0  0  0
 21 41  1  0  0  0
 22 23  2  0  0  0
 22 42  1  0  0  0
 24 43  1  0  0  0
 25 26  2  0  0  0
M  END
> <s_m_entry_id>
1094

> <s_m_entry_name>
Bace_CAT-4i.1

> <s_m_Source_Path>
C:\Users\yujiethinkpad\Desktop\05A\BACE

> <s_m_Source_File>
Bace_CAT-4i.sdf

> <i_m_Source_File_Index>
1

> <s_i_glide_gridfile>
glide-grid_Bace

> <s_lp_Force_Field>
S-OPLS

> <s_lp_Variant>
CAT-4i-1

> <r_i_docking_score>
-5.64800712969786

> <r_i_glide_ecoul>
-2.71088933944702

> <r_i_glide_einternal>
1.23127400875092

> <r_i_glide_emodel>
-38.2361003744137

> <r_i_glide_energy>
-33.4104838371277

> <r_i_glide_erotb>
0.485235280767516

> <r_i_glide_esite>
-0.027337019389314

> <r_i_glide_evdw>
-30.6995944976807

> <r_i_glide_gscore>
-5.64800712969786

> <r_i_glide_hbond>
-0.456

> <r_i_glide_ligand_efficiency>
-0.217231043449918

> <r_i_glide_ligand_efficiency_ln>
-1.32641594178656

> <r_i_glide_ligand_efficiency_sa>
-0.6435461114575

> <r_i_glide_lipo>
-2.35780609314672

> <r_i_glide_metal>
0

> <r_i_glide_rewards>
-1.35048617212826

> <r_lp_Energy>
52.272348

> <i_i_glide_confnum>
16

> <i_i_glide_lignum>
1

> <i_i_glide_posenum>
286

> <i_i_glide_rotatable_bonds>
3

> <i_lp_mmshare_version>
54117

> <b_lp_Chiralities_Consistent>
1

> <r_lp_tautomer_probability>
1

> <r_i_glide_eff_state_penalty>
0

> <s_epik_input>
W2NIXTFbY0hdW2NIXVtjSF1bY0hdYzFbQ0BAXTIoTj1DKFtOSDJdKU4oW0NIM10pQzI9TyljM1tjSF1bY0hdW2NIXWMoW2NIXTMpLWM0W2NIXVtjSF1bY0hdW2NIXW40

> <s_epik_cmdline>
J2VwaWtfcHl0aG9uJywgJy1waCcsICc3LjAnLCAnLXRuJywgJzgnLCAnLW1hJywgJzUwMCcsICctaW1hZScsICc8aW5maWxlLm1hZT4nLCAnLW9tYWUnLCAnPG91dGZpbGUubWFlPic=

> <r_epik_Ionization_Penalty>
  0.8782

> <r_epik_Ionization_Penalty_Charging>
  0.0000

> <r_epik_Ionization_Penalty_Neutral>
  0.8782

> <r_epik_State_Penalty>
  0.0000

> <r_epik_Charging_Adjusted_Penalty>
0

> <i_epik_Tot_Q>
0

> <i_epik_Tot_abs_Q>
0

> <s_m_source_file>
ligprep_Bace4i.maegz

> <i_m_source_file_index>
1

> <i_f3d_flags>
0

> <s_m_job_name>
align_ligands_3

> <r_user_dG.exp>
-8.263

> <r_m_Molecular_weight>
343.41178

> <r_m_RMSD_695>
0

> <s_epik_Chemistry_Notes>
This compound has an imine and may undergo hydrolysis.

> <r_m_RMS_In_Place_720>
0.218446420488283

> <r_glide_shape_similarity>
0.932622611522675

> <i_phase_Input_Structure_Number>
36

> <i_phase_Structure_Number>
36

> <i_phase_Reference_Structure>
36

> <s_phase_Core_SMARTS>


> <r_phase_Similarity_to_Reference>
1

> <s_phase_Alignment_Method>


> <s_phase_Alignment_Reason>


> <s_m_subgroup_title>
align_ligands_3

> <s_m_subgroupid>
align_ligands_3

> <b_m_subgroup_collapsed>
0

$$$$
