26
                    3D
 Schrodinger Suite 2021-2.
 43 46  0  0  1  0            999 V2000
    4.1784  -49.4639    6.2203 O   0  0  0  0  0  0
    3.2494  -48.6379    6.3898 C   0  0  0  0  0  0
    3.5057  -47.4203    6.5722 O   0  5  0  0  0  0
    1.8694  -49.1879    6.3561 C   0  0  0  0  0  0
   -0.1751  -50.7678    6.4871 C   0  0  0  0  0  0
   -1.1857  -51.7207    6.5942 C   0  0  0  0  0  0
   -2.5063  -51.3885    6.3255 C   0  0  0  0  0  0
   -2.8117  -50.0805    5.9266 C   0  0  0  0  0  0
   -1.8118  -49.1247    5.7993 C   0  0  0  0  0  0
   -0.4872  -49.4555    6.0836 C   0  0  0  0  0  0
    0.6424  -48.5710    6.0066 C   0  0  0  0  0  0
    0.5308  -47.1337    5.6114 C   0  0  0  0  0  0
    0.4854  -46.1552    6.7424 C   0  0  0  0  0  0
   -0.7882  -46.0224    7.5175 C   0  0  0  0  0  0
   -1.8227  -45.6254    6.6920 O   0  0  0  0  0  0
   -3.1083  -45.4602    7.1320 C   0  0  0  0  0  0
   -5.7337  -45.0786    7.9666 C   0  0  0  0  0  0
   -4.8346  -45.8169    8.7381 C   0  0  0  0  0  0
   -3.5177  -46.0130    8.3257 C   0  0  0  0  0  0
   -0.9467  -52.7323    6.8876 H   0  0  0  0  0  0
   -3.2819  -52.1335    6.4221 H   0  0  0  0  0  0
   -3.8359  -49.8055    5.7077 H   0  0  0  0  0  0
   -2.0725  -48.1236    5.4906 H   0  0  0  0  0  0
    1.3681  -46.8691    4.9650 H   0  0  0  0  0  0
   -0.3566  -46.9928    4.9956 H   0  0  0  0  0  0
    1.2710  -46.4292    7.4469 H   0  0  0  0  0  0
    0.7609  -45.1748    6.3539 H   0  0  0  0  0  0
   -1.0297  -46.9706    7.9561 H   0  0  0  0  0  0
   -0.6320  -45.3298    8.3485 H   0  0  0  0  0  0
   -2.8608  -46.5885    8.9559 H   0  0  0  0  0  0
   -5.3052  -44.5292    6.7686 C   0  0  0  0  0  0
   -3.9866  -44.7164    6.3549 C   0  0  0  0  0  0
   -3.5571  -44.1489    5.1170 C   0  0  0  0  0  0
   -4.5083  -43.5802    4.2361 C   0  0  0  0  0  0
   -5.8694  -43.4998    4.6177 C   0  0  0  0  0  0
   -6.2533  -43.9014    5.9227 C   0  0  0  0  0  0
   -2.5365  -44.2853    4.7853 H   0  0  0  0  0  0
   -4.1978  -43.2267    3.2636 H   0  0  0  0  0  0
   -6.5921  -43.0841    3.9322 H   0  0  0  0  0  0
   -7.2790  -43.7925    6.2414 H   0  0  0  0  0  0
   -5.1575  -46.2742    9.6552 H   0  0  0  0  0  0
   -6.7753  -45.0291    8.2525 H   0  0  0  0  0  0
    1.5033  -50.7915    6.7395 O   0  0  0  0  0  0
  1  2  2  0  0  0
  2  3  1  0  0  0
  2  4  1  0  0  0
  4 11  2  0  0  0
  4 43  1  0  0  0
  5  6  1  0  0  0
  5 10  2  0  0  0
  5 43  1  0  0  0
  6  7  2  0  0  0
  6 20  1  0  0  0
  7  8  1  0  0  0
  7 21  1  0  0  0
  8  9  2  0  0  0
  8 22  1  0  0  0
  9 10  1  0  0  0
  9 23  1  0  0  0
 10 11  1  0  0  0
 11 12  1  0  0  0
 12 24  1  0  0  0
 12 25  1  0  0  0
 12 13  1  0  0  0
 13 14  1  0  0  0
 13 26  1  0  0  0
 13 27  1  0  0  0
 14 15  1  0  0  0
 14 28  1  0  0  0
 14 29  1  0  0  0
 15 16  1  0  0  0
 16 19  2  0  0  0
 16 32  1  0  0  0
 17 18  2  0  0  0
 17 31  1  0  0  0
 17 42  1  0  0  0
 18 19  1  0  0  0
 18 41  1  0  0  0
 19 30  1  0  0  0
 31 32  2  0  0  0
 31 36  1  0  0  0
 32 33  1  0  0  0
 33 34  2  0  0  0
 33 37  1  0  0  0
 34 35  1  0  0  0
 34 38  1  0  0  0
 35 36  2  0  0  0
 35 39  1  0  0  0
 36 40  1  0  0  0
M  CHG  1   3  -1
M  END
> <s_m_entry_id>
243

> <s_m_entry_name>
MCL1_26.1

> <r_m_Molecular_weight>
345.37839

> <s_m_Source_Path>
C:\Users\yujiethinkpad\Desktop\05A\MCL1\original

> <s_m_Source_File>
MCL1_26.sdf

> <r_user_dG.exp>
-8.23584030891924

> <s_fepmapper_entryid>
2

> <i_fepmapper_bias>
0

> <i_fepmapper_affinity>
1

> <r_fepmapper_exp_dG>
-8.23584030892

> <i_fepmapper_unit>
1

> <i_m_Source_File_Index>
1

> <s_m_job_name>
align_ligands_2

> <s_i_glide_gridfile>
glide-grid_MCL1

> <i_i_glide_lignum>
10

> <i_i_glide_rotatable_bonds>
6

> <r_i_docking_score>
-8.93266116675614

> <r_i_glide_ligand_efficiency>
-0.343563891029082

> <r_i_glide_ligand_efficiency_sa>
-1.01780667531502

> <r_i_glide_ligand_efficiency_ln>
-2.09780616456072

> <r_i_glide_gscore>
-8.93266116675614

> <r_i_glide_lipo>
-5.49355834941262

> <r_i_glide_hbond>
-0.2

> <r_i_glide_metal>
0

> <r_i_glide_rewards>
-1.95430922727273

> <r_i_glide_evdw>
-30.4930248260498

> <r_i_glide_ecoul>
-2.58501958847046

> <r_i_glide_erotb>
0.637125540834659

> <r_i_glide_esite>
-0.00951495133239819

> <r_i_glide_emodel>
-45.9532298862659

> <r_i_glide_energy>
-33.0780444145203

> <r_i_glide_einternal>
4.59974002838135

> <i_i_glide_confnum>
42

> <i_i_glide_posenum>
370

> <r_i_glide_eff_state_penalty>
0

> <r_glide_shape_similarity>
0.900288939476013

> <i_phase_Input_Structure_Number>
8

> <i_phase_Structure_Number>
8

> <r_phase_Similarity_to_Reference>
0.860361179871658

> <i_phase_Reference_Structure>
1

> <s_phase_Alignment_Method>
snapped core

> <s_phase_Alignment_Reason>


> <s_phase_Core_SMARTS>
a1aaaaa1AAAAa(aa2)a(a23)aaaa3

> <s_f3d_frozen_atoms>
19 18 17 31 32 16 15 14 13 12 11 4 43 10 5 9 8 7 6 30 41 42 28 29 26 27 24 25 23 22 21 20

> <s_m_subgroup_title>
align_ligands_2

> <s_m_subgroupid>
align_ligands_2

> <b_m_subgroup_collapsed>
0

$$$$
