34
                    3D
 Schrodinger Suite 2021-2.
 41 43  0  0  1  0            999 V2000
    4.1784  -49.4639    6.2203 O   0  0  0  0  0  0
    3.2494  -48.6379    6.3898 C   0  0  0  0  0  0
    3.5057  -47.4203    6.5722 O   0  5  0  0  0  0
    1.8694  -49.1879    6.3561 C   0  0  0  0  0  0
   -0.1751  -50.7678    6.4871 C   0  0  0  0  0  0
   -1.1857  -51.7207    6.5942 C   0  0  0  0  0  0
   -2.5063  -51.3885    6.3255 C   0  0  0  0  0  0
   -2.8117  -50.0805    5.9266 C   0  0  0  0  0  0
   -1.8118  -49.1247    5.7993 C   0  0  0  0  0  0
   -0.4872  -49.4555    6.0836 C   0  0  0  0  0  0
    0.6424  -48.5710    6.0066 C   0  0  0  0  0  0
    0.5308  -47.1337    5.6114 C   0  0  0  0  0  0
    0.4854  -46.1552    6.7424 C   0  0  0  0  0  0
   -0.7882  -46.0224    7.5175 C   0  0  0  0  0  0
   -1.8227  -45.6254    6.6920 O   0  0  0  0  0  0
   -3.1083  -45.4602    7.1320 C   0  0  0  0  0  0
   -3.5177  -46.0130    8.3257 C   0  0  0  0  0  0
   -4.8346  -45.8169    8.7381 C   0  0  0  0  0  0
   -5.7337  -45.0786    7.9666 C   0  0  0  0  0  0
   -5.3052  -44.5292    6.7686 C   0  0  0  0  0  0
   -3.9866  -44.7164    6.3549 C   0  0  0  0  0  0
   -0.9453  -52.7269    6.9020 H   0  0  0  0  0  0
   -3.2892  -52.1277    6.4326 H   0  0  0  0  0  0
   -3.8316  -49.8167    5.6966 H   0  0  0  0  0  0
   -2.0860  -48.1120    5.5271 H   0  0  0  0  0  0
   -0.3682  -46.9996    5.0117 H   0  0  0  0  0  0
    1.3639  -46.8633    4.9557 H   0  0  0  0  0  0
    0.7107  -45.1694    6.3527 H   0  0  0  0  0  0
    1.2546  -46.3796    7.4800 H   0  0  0  0  0  0
   -0.6545  -45.3569    8.3679 H   0  0  0  0  0  0
   -1.1071  -47.0082    7.8432 H   0  0  0  0  0  0
   -2.7945  -46.4617    8.9947 H   0  0  0  0  0  0
   -3.6775  -44.2454    5.4370 H   0  0  0  0  0  0
    1.5033  -50.7915    6.7395 N   0  0  0  0  0  0
    2.2169  -51.4176    7.1017 H   0  0  0  0  0  0
   -5.9761  -43.9040    6.2029 H   0  0  0  0  0  0
   -5.1454  -46.2316    9.6848 H   0  0  0  0  0  0
   -7.1704  -44.9170    8.5088 C   0  0  0  0  0  0
   -8.0100  -44.5508    7.5264 F   0  0  0  0  0  0
   -7.2769  -44.0551    9.5211 F   0  0  0  0  0  0
   -7.5451  -46.0854    9.0476 F   0  0  0  0  0  0
  1  2  2  0  0  0
  2  3  1  0  0  0
  2  4  1  0  0  0
  4 11  2  0  0  0
  4 34  1  0  0  0
  5  6  1  0  0  0
  5 10  2  0  0  0
  5 34  1  0  0  0
  6  7  2  0  0  0
  6 22  1  0  0  0
  7  8  1  0  0  0
  7 23  1  0  0  0
  8  9  2  0  0  0
  8 24  1  0  0  0
  9 10  1  0  0  0
  9 25  1  0  0  0
 10 11  1  0  0  0
 11 12  1  0  0  0
 12 26  1  0  0  0
 12 27  1  0  0  0
 12 13  1  0  0  0
 13 14  1  0  0  0
 13 28  1  0  0  0
 13 29  1  0  0  0
 14 15  1  0  0  0
 14 30  1  0  0  0
 14 31  1  0  0  0
 15 16  1  0  0  0
 16 17  1  0  0  0
 16 21  2  0  0  0
 17 18  2  0  0  0
 17 32  1  0  0  0
 18 19  1  0  0  0
 18 37  1  0  0  0
 19 20  2  0  0  0
 19 38  1  0  0  0
 20 21  1  0  0  0
 20 36  1  0  0  0
 21 33  1  0  0  0
 34 35  1  0  0  0
 38 39  1  0  0  0
 38 40  1  0  0  0
 38 41  1  0  0  0
M  CHG  1   3  -1
M  END
> <s_m_entry_id>
276

> <s_m_entry_name>
MCL1_34.1

> <r_m_Molecular_weight>
362.3315

> <s_m_Source_Path>
C:\Users\yujiethinkpad\Desktop\05A\MCL1\original

> <s_m_Source_File>
MCL1_34.sdf

> <r_user_dG.exp>
-6.86919156414505

> <s_fepmapper_entryid>
42

> <i_fepmapper_bias>
0

> <i_fepmapper_affinity>
1

> <r_fepmapper_exp_dG>
-6.86919156415

> <i_fepmapper_unit>
1

> <i_m_Source_File_Index>
1

> <s_m_job_name>
align_ligands_2

> <s_i_glide_gridfile>
glide-grid_MCL1

> <i_i_glide_lignum>
18

> <i_i_glide_rotatable_bonds>
7

> <r_i_docking_score>
-7.31312762894846

> <r_i_glide_ligand_efficiency>
-0.281274139574941

> <r_i_glide_ligand_efficiency_sa>
-0.833273531730467

> <r_i_glide_ligand_efficiency_ln>
-1.71746402732957

> <r_i_glide_gscore>
-7.31312762894846

> <r_i_glide_lipo>
-4.41399565653339

> <r_i_glide_hbond>
-0.2

> <r_i_glide_metal>
0

> <r_i_glide_rewards>
-2.11448612675339

> <r_i_glide_evdw>
-16.9102993011475

> <r_i_glide_ecoul>
-3.04347848892212

> <r_i_glide_erotb>
0.731300272525245

> <r_i_glide_esite>
-0.0139093797912401

> <r_i_glide_emodel>
-24.8495677329947

> <r_i_glide_energy>
-19.9537777900696

> <r_i_glide_einternal>
4.57591390609741

> <i_i_glide_confnum>
113

> <i_i_glide_posenum>
212

> <r_i_glide_eff_state_penalty>
0

> <r_glide_shape_similarity>
0.926235020160675

> <i_phase_Input_Structure_Number>
41

> <i_phase_Structure_Number>
41

> <r_phase_Similarity_to_Reference>
0.875071939670794

> <i_phase_Reference_Structure>
1

> <s_phase_Alignment_Method>
snapped core

> <s_phase_Alignment_Reason>


> <s_phase_Core_SMARTS>
a1aaaaa1AAAAa(aa2)a(a23)aaaa3

> <s_f3d_frozen_atoms>
17 18 19 20 21 16 15 14 13 12 11 4 34 10 5 9 8 7 6 32 37 36 33 30 31 28 29 26 27 35 25 24 23 22

> <s_m_subgroup_title>
align_ligands_2

> <s_m_subgroupid>
align_ligands_2

> <b_m_subgroup_collapsed>
0

$$$$
