36
                    3D
 Schrodinger Suite 2021-2.
 44 46  0  0  1  0            999 V2000
    4.1784  -49.4639    6.2203 O   0  0  0  0  0  0
    3.2494  -48.6379    6.3898 C   0  0  0  0  0  0
    3.5057  -47.4203    6.5722 O   0  5  0  0  0  0
    1.8694  -49.1879    6.3561 C   0  0  0  0  0  0
   -0.1751  -50.7678    6.4871 C   0  0  0  0  0  0
   -1.1857  -51.7207    6.5942 C   0  0  0  0  0  0
   -2.5063  -51.3885    6.3255 C   0  0  0  0  0  0
   -2.8117  -50.0805    5.9266 C   0  0  0  0  0  0
   -1.8118  -49.1247    5.7993 C   0  0  0  0  0  0
   -0.4872  -49.4555    6.0836 C   0  0  0  0  0  0
    0.6424  -48.5710    6.0066 C   0  0  0  0  0  0
    0.5308  -47.1337    5.6114 C   0  0  0  0  0  0
    0.4854  -46.1552    6.7424 C   0  0  0  0  0  0
   -0.7882  -46.0224    7.5175 C   0  0  0  0  0  0
   -1.8227  -45.6254    6.6920 O   0  0  0  0  0  0
   -3.1083  -45.4602    7.1320 C   0  0  0  0  0  0
   -3.5177  -46.0130    8.3257 C   0  0  0  0  0  0
   -4.8346  -45.8169    8.7381 C   0  0  0  0  0  0
   -5.7337  -45.0786    7.9666 C   0  0  0  0  0  0
   -5.3052  -44.5292    6.7686 C   0  0  0  0  0  0
   -3.9866  -44.7164    6.3549 C   0  0  0  0  0  0
   -0.9502  -52.7279    6.9011 H   0  0  0  0  0  0
   -3.2780  -52.1387    6.4277 H   0  0  0  0  0  0
   -3.8307  -49.8034    5.6936 H   0  0  0  0  0  0
   -2.0743  -48.1218    5.4927 H   0  0  0  0  0  0
    1.3682  -46.8612    4.9690 H   0  0  0  0  0  0
   -0.3534  -46.9941    4.9893 H   0  0  0  0  0  0
    1.2769  -46.3756    7.4588 H   0  0  0  0  0  0
    0.7067  -45.1594    6.3602 H   0  0  0  0  0  0
   -1.0829  -46.9951    7.8924 H   0  0  0  0  0  0
   -0.6507  -45.3309    8.3499 H   0  0  0  0  0  0
   -2.8463  -46.6247    8.9081 H   0  0  0  0  0  0
   -3.6306  -44.2658    5.4400 H   0  0  0  0  0  0
    1.5033  -50.7915    6.7395 N   0  0  0  0  0  0
    2.2200  -51.4213    7.0685 H   0  0  0  0  0  0
   -6.0004  -44.0444    6.0986 H   0  0  0  0  0  0
   -7.3769  -44.8311    8.4817 Cl  0  0  0  0  0  0
   -5.2527  -46.4601   10.0453 C   0  0  0  0  0  0
   -4.6561  -46.0190   10.8429 H   0  0  0  0  0  0
   -6.2888  -46.2482   10.3047 H   0  0  0  0  0  0
   -5.0402  -47.9768   10.0470 C   0  0  0  0  0  0
   -5.4400  -48.4123   10.9619 H   0  0  0  0  0  0
   -5.5418  -48.4597    9.2077 H   0  0  0  0  0  0
   -3.9870  -48.2473    9.9955 H   0  0  0  0  0  0
  1  2  2  0  0  0
  2  3  1  0  0  0
  2  4  1  0  0  0
  4 11  2  0  0  0
  4 34  1  0  0  0
  5  6  1  0  0  0
  5 10  2  0  0  0
  5 34  1  0  0  0
  6  7  2  0  0  0
  6 22  1  0  0  0
  7  8  1  0  0  0
  7 23  1  0  0  0
  8  9  2  0  0  0
  8 24  1  0  0  0
  9 10  1  0  0  0
  9 25  1  0  0  0
 10 11  1  0  0  0
 11 12  1  0  0  0
 12 26  1  0  0  0
 12 27  1  0  0  0
 12 13  1  0  0  0
 13 14  1  0  0  0
 13 28  1  0  0  0
 13 29  1  0  0  0
 14 15  1  0  0  0
 14 30  1  0  0  0
 14 31  1  0  0  0
 15 16  1  0  0  0
 16 17  1  0  0  0
 16 21  2  0  0  0
 17 18  2  0  0  0
 17 32  1  0  0  0
 18 19  1  0  0  0
 18 38  1  0  0  0
 19 20  2  0  0  0
 19 37  1  0  0  0
 20 21  1  0  0  0
 20 36  1  0  0  0
 21 33  1  0  0  0
 34 35  1  0  0  0
 38 39  1  0  0  0
 38 40  1  0  0  0
 38 41  1  0  0  0
 41 42  1  0  0  0
 41 43  1  0  0  0
 41 44  1  0  0  0
M  CHG  1   3  -1
M  END
> <s_m_entry_id>
257

> <s_m_entry_name>
MCL1_36.1

> <r_m_Molecular_weight>
356.83233

> <s_m_Source_Path>
C:\Users\yujiethinkpad\Desktop\05A\MCL1\original

> <s_m_Source_File>
MCL1_36.sdf

> <r_user_dG.exp>
-8.17902305143249

> <s_fepmapper_entryid>
37

> <i_fepmapper_bias>
0

> <i_fepmapper_affinity>
1

> <r_fepmapper_exp_dG>
-8.17902305143

> <i_fepmapper_unit>
1

> <i_m_Source_File_Index>
1

> <s_m_job_name>
align_ligands_2

> <s_i_glide_gridfile>
glide-grid_MCL1

> <i_i_glide_lignum>
20

> <i_i_glide_rotatable_bonds>
7

> <r_i_docking_score>
-8.34438870896209

> <r_i_glide_ligand_efficiency>
-0.333775548358484

> <r_i_glide_ligand_efficiency_sa>
-0.975965622934762

> <r_i_glide_ligand_efficiency_ln>
-1.97787018517493

> <r_i_glide_gscore>
-8.34438870896209

> <r_i_glide_lipo>
-5.01628152983433

> <r_i_glide_hbond>
-0.2

> <r_i_glide_metal>
0

> <r_i_glide_rewards>
-1.82062037083695

> <r_i_glide_evdw>
-32.6054039001465

> <r_i_glide_ecoul>
-2.84727478027344

> <r_i_glide_erotb>
0.751512930677006

> <r_i_glide_esite>
-0.00163832691948138

> <r_i_glide_emodel>
-49.4015145543934

> <r_i_glide_energy>
-35.4526786804199

> <r_i_glide_einternal>
5.34076023101807

> <i_i_glide_confnum>
117

> <i_i_glide_posenum>
330

> <r_i_glide_eff_state_penalty>
0

> <r_glide_shape_similarity>
0.926771938800812

> <i_phase_Input_Structure_Number>
22

> <i_phase_Structure_Number>
22

> <r_phase_Similarity_to_Reference>
0.935518248743303

> <i_phase_Reference_Structure>
1

> <s_phase_Alignment_Method>
snapped core

> <s_phase_Alignment_Reason>


> <s_phase_Core_SMARTS>
a1aaaaa1AAAAa(aa2)a(a23)aaaa3

> <s_f3d_frozen_atoms>
17 18 19 20 21 16 15 14 13 12 11 4 34 10 5 9 8 7 6 32 37 36 33 30 31 28 29 26 27 35 25 24 23 22

> <s_m_subgroup_title>
align_ligands_2

> <s_m_subgroupid>
align_ligands_2

> <b_m_subgroup_collapsed>
0

$$$$
