47
                    3D
 Schrodinger Suite 2021-2.
 43 46  0  0  1  0            999 V2000
    4.1784  -49.4639    6.2203 O   0  0  0  0  0  0
    3.2494  -48.6379    6.3898 C   0  0  0  0  0  0
    3.5057  -47.4203    6.5722 O   0  5  0  0  0  0
    1.8694  -49.1879    6.3561 C   0  0  0  0  0  0
   -0.1751  -50.7678    6.4871 C   0  0  0  0  0  0
   -1.1857  -51.7207    6.5942 C   0  0  0  0  0  0
   -2.5063  -51.3885    6.3255 C   0  0  0  0  0  0
   -2.8117  -50.0805    5.9266 C   0  0  0  0  0  0
   -1.8118  -49.1247    5.7993 C   0  0  0  0  0  0
   -0.4872  -49.4555    6.0836 C   0  0  0  0  0  0
    0.6424  -48.5710    6.0066 C   0  0  0  0  0  0
    0.5308  -47.1337    5.6114 C   0  0  0  0  0  0
    0.4854  -46.1552    6.7424 C   0  0  0  0  0  0
   -0.7882  -46.0224    7.5175 C   0  0  0  0  0  0
   -1.8227  -45.6254    6.6920 O   0  0  0  0  0  0
   -3.1083  -45.4602    7.1320 C   0  0  0  0  0  0
   -4.8346  -45.8169    8.7381 C   0  0  0  0  0  0
   -3.5177  -46.0130    8.3257 C   0  0  0  0  0  0
   -0.9448  -52.7354    6.8852 H   0  0  0  0  0  0
   -3.2763  -52.1428    6.4129 H   0  0  0  0  0  0
   -3.8293  -49.8133    5.6812 H   0  0  0  0  0  0
   -2.0726  -48.1300    5.4653 H   0  0  0  0  0  0
    1.3677  -46.8668    4.9649 H   0  0  0  0  0  0
   -0.3547  -46.9969    4.9909 H   0  0  0  0  0  0
    1.2627  -46.3512    7.4747 H   0  0  0  0  0  0
    0.6892  -45.1586    6.3470 H   0  0  0  0  0  0
   -1.0850  -46.9914    7.9031 H   0  0  0  0  0  0
   -0.6437  -45.3317    8.3495 H   0  0  0  0  0  0
   -2.8263  -46.6152    8.8948 H   0  0  0  0  0  0
   -3.9866  -44.7164    6.3549 C   0  0  0  0  0  0
   -5.1975  -46.1842    9.6890 H   0  0  0  0  0  0
   -5.3052  -44.5292    6.7686 C   0  0  0  0  0  0
   -5.7337  -45.0786    7.9666 C   0  0  0  0  0  0
   -7.0007  -44.9137    8.3811 N   0  0  0  0  0  0
   -7.8438  -44.2704    7.5511 C   0  0  0  0  0  0
   -7.5020  -43.7348    6.2814 C   0  0  0  0  0  0
   -6.1303  -43.8117    5.8943 C   0  0  0  0  0  0
   -8.8493  -44.2332    7.9368 H   0  0  0  0  0  0
   -8.2194  -43.3049    5.6074 H   0  0  0  0  0  0
   -5.7750  -43.4027    4.9620 H   0  0  0  0  0  0
   -3.6914  -44.2372    5.4312 H   0  0  0  0  0  0
    1.5033  -50.7915    6.7395 N   0  0  0  0  0  0
    2.2125  -51.4420    7.0599 H   0  0  0  0  0  0
  1  2  2  0  0  0
  2  3  1  0  0  0
  2  4  1  0  0  0
  4 11  2  0  0  0
  4 42  1  0  0  0
  5  6  1  0  0  0
  5 10  2  0  0  0
  5 42  1  0  0  0
  6  7  2  0  0  0
  6 19  1  0  0  0
  7  8  1  0  0  0
  7 20  1  0  0  0
  8  9  2  0  0  0
  8 21  1  0  0  0
  9 10  1  0  0  0
  9 22  1  0  0  0
 10 11  1  0  0  0
 11 12  1  0  0  0
 12 23  1  0  0  0
 12 24  1  0  0  0
 12 13  1  0  0  0
 13 14  1  0  0  0
 13 25  1  0  0  0
 13 26  1  0  0  0
 14 15  1  0  0  0
 14 27  1  0  0  0
 14 28  1  0  0  0
 15 16  1  0  0  0
 16 18  2  0  0  0
 16 30  1  0  0  0
 17 18  1  0  0  0
 17 31  1  0  0  0
 17 33  2  0  0  0
 18 29  1  0  0  0
 30 32  2  0  0  0
 30 41  1  0  0  0
 32 33  1  0  0  0
 32 37  1  0  0  0
 33 34  1  0  0  0
 34 35  2  0  0  0
 35 36  1  0  0  0
 35 38  1  0  0  0
 36 37  2  0  0  0
 36 39  1  0  0  0
 37 40  1  0  0  0
 42 43  1  0  0  0
M  CHG  1   3  -1
M  END
> <s_m_entry_id>
260

> <s_m_entry_name>
MCL1_47.1

> <r_m_Molecular_weight>
345.38124

> <s_m_Source_Path>
C:\Users\yujiethinkpad\Desktop\05A\MCL1\original

> <s_m_Source_File>
MCL1_47.sdf

> <r_user_dG.exp>
-5.77553168796231

> <s_fepmapper_entryid>
33

> <i_fepmapper_bias>
0

> <i_fepmapper_affinity>
1

> <r_fepmapper_exp_dG>
-5.77553168796

> <i_fepmapper_unit>
1

> <i_m_Source_File_Index>
1

> <s_m_job_name>
align_ligands_2

> <s_i_glide_gridfile>
glide-grid_MCL1

> <i_i_glide_lignum>
31

> <i_i_glide_rotatable_bonds>
6

> <r_i_docking_score>
-8.32752154698502

> <r_i_glide_ligand_efficiency>
-0.320289290268655

> <r_i_glide_ligand_efficiency_sa>
-0.948855762143389

> <r_i_glide_ligand_efficiency_ln>
-1.95569111048252

> <r_i_glide_gscore>
-8.32752154698502

> <r_i_glide_lipo>
-4.9972885688543

> <r_i_glide_hbond>
-0.2

> <r_i_glide_metal>
0

> <r_i_glide_rewards>
-1.86427592944557

> <r_i_glide_evdw>
-29.0324115753174

> <r_i_glide_ecoul>
-2.93852233886719

> <r_i_glide_erotb>
0.637114732374426

> <r_i_glide_esite>
-0.0106728514636276

> <r_i_glide_emodel>
-41.4319714024843

> <r_i_glide_energy>
-31.9709339141846

> <r_i_glide_einternal>
3.95834875106812

> <i_i_glide_confnum>
43

> <i_i_glide_posenum>
8

> <r_i_glide_eff_state_penalty>
0

> <r_glide_shape_similarity>
0.895725905895233

> <i_phase_Input_Structure_Number>
25

> <i_phase_Structure_Number>
25

> <r_phase_Similarity_to_Reference>
0.897190032868283

> <i_phase_Reference_Structure>
1

> <s_phase_Alignment_Method>
snapped core

> <s_phase_Alignment_Reason>


> <s_phase_Core_SMARTS>
a1aaaaa1AAAAa(aa2)a(a23)aaaa3

> <s_f3d_frozen_atoms>
18 17 33 32 30 16 15 14 13 12 11 4 42 10 5 9 8 7 6 29 31 41 27 28 25 26 23 24 43 22 21 20 19

> <s_m_subgroup_title>
align_ligands_2

> <s_m_subgroupid>
align_ligands_2

> <b_m_subgroup_collapsed>
0

$$$$
