50
                    3D
 Schrodinger Suite 2021-2.
 44 46  0  0  1  0            999 V2000
    4.1784  -49.4639    6.2203 O   0  0  0  0  0  0
    3.2494  -48.6379    6.3898 C   0  0  0  0  0  0
    3.5057  -47.4203    6.5722 O   0  5  0  0  0  0
    1.8694  -49.1879    6.3561 C   0  0  0  0  0  0
   -0.1751  -50.7678    6.4871 C   0  0  0  0  0  0
   -1.1857  -51.7207    6.5942 C   0  0  0  0  0  0
   -2.5063  -51.3885    6.3255 C   0  0  0  0  0  0
   -2.8117  -50.0805    5.9266 C   0  0  0  0  0  0
   -1.8118  -49.1247    5.7993 C   0  0  0  0  0  0
   -0.4872  -49.4555    6.0836 C   0  0  0  0  0  0
    0.6424  -48.5710    6.0066 C   0  0  0  0  0  0
    0.5308  -47.1337    5.6114 C   0  0  0  0  0  0
    0.4854  -46.1552    6.7424 C   0  0  0  0  0  0
   -0.7882  -46.0224    7.5175 C   0  0  0  0  0  0
   -1.8227  -45.6254    6.6920 O   0  0  0  0  0  0
   -3.1083  -45.4602    7.1320 C   0  0  0  0  0  0
   -3.5177  -46.0130    8.3257 C   0  0  0  0  0  0
   -4.8346  -45.8169    8.7381 C   0  0  0  0  0  0
   -5.3037  -46.4216   10.0240 C   0  0  0  0  0  0
   -5.7337  -45.0786    7.9666 C   0  0  0  0  0  0
   -7.3769  -44.8311    8.4817 Cl  0  0  0  0  0  0
   -5.3052  -44.5292    6.7686 C   0  0  0  0  0  0
   -6.2713  -43.7412    5.9372 C   0  0  0  0  0  0
   -3.9866  -44.7164    6.3549 C   0  0  0  0  0  0
   -0.9514  -52.7331    6.8878 H   0  0  0  0  0  0
   -3.2849  -52.1339    6.4084 H   0  0  0  0  0  0
   -3.8330  -49.8121    5.6878 H   0  0  0  0  0  0
   -2.3468  -47.5671    5.3033 Cl  0  0  0  0  0  0
   -0.3304  -46.9841    4.9652 H   0  0  0  0  0  0
    1.3842  -46.8585    4.9932 H   0  0  0  0  0  0
    0.7191  -45.1684    6.3470 H   0  0  0  0  0  0
    1.2561  -46.3775    7.4762 H   0  0  0  0  0  0
   -0.6743  -45.3526    8.3710 H   0  0  0  0  0  0
   -1.1074  -47.0094    7.8356 H   0  0  0  0  0  0
   -2.8025  -46.5529    8.9253 H   0  0  0  0  0  0
   -6.3512  -46.1667   10.1851 H   0  0  0  0  0  0
   -4.7051  -46.0338   10.8482 H   0  0  0  0  0  0
   -5.1972  -47.5053    9.9766 H   0  0  0  0  0  0
   -5.7708  -43.3857    5.0366 H   0  0  0  0  0  0
   -7.1128  -44.3754    5.6582 H   0  0  0  0  0  0
   -6.6342  -42.8886    6.5112 H   0  0  0  0  0  0
   -3.6511  -44.2651    5.4329 H   0  0  0  0  0  0
    1.5033  -50.7915    6.7395 N   0  0  0  0  0  0
    2.2258  -51.4287    7.0627 H   0  0  0  0  0  0
  1  2  2  0  0  0
  2  3  1  0  0  0
  2  4  1  0  0  0
  4 11  2  0  0  0
  4 43  1  0  0  0
  5  6  1  0  0  0
  5 10  2  0  0  0
  5 43  1  0  0  0
  6  7  2  0  0  0
  6 25  1  0  0  0
  7  8  1  0  0  0
  7 26  1  0  0  0
  8  9  2  0  0  0
  8 27  1  0  0  0
  9 10  1  0  0  0
  9 28  1  0  0  0
 10 11  1  0  0  0
 11 12  1  0  0  0
 12 29  1  0  0  0
 12 30  1  0  0  0
 12 13  1  0  0  0
 13 14  1  0  0  0
 13 31  1  0  0  0
 13 32  1  0  0  0
 14 15  1  0  0  0
 14 33  1  0  0  0
 14 34  1  0  0  0
 15 16  1  0  0  0
 16 17  1  0  0  0
 16 24  2  0  0  0
 17 18  2  0  0  0
 17 35  1  0  0  0
 18 19  1  0  0  0
 18 20  1  0  0  0
 19 36  1  0  0  0
 19 37  1  0  0  0
 19 38  1  0  0  0
 20 21  1  0  0  0
 20 22  2  0  0  0
 22 23  1  0  0  0
 22 24  1  0  0  0
 23 39  1  0  0  0
 23 40  1  0  0  0
 23 41  1  0  0  0
 24 42  1  0  0  0
 43 44  1  0  0  0
M  CHG  1   3  -1
M  END
> <s_m_entry_id>
265

> <s_m_entry_name>
MCL1_50.1

> <r_m_Molecular_weight>
391.27736

> <s_m_Source_Path>
C:\Users\yujiethinkpad\Desktop\05A\MCL1\original

> <s_m_Source_File>
MCL1_50.sdf

> <r_user_dG.exp>
-9.32829709690352

> <s_fepmapper_entryid>
13

> <i_fepmapper_bias>
0

> <i_fepmapper_affinity>
1

> <r_fepmapper_exp_dG>
-9.3282970969

> <i_fepmapper_unit>
1

> <i_m_Source_File_Index>
1

> <s_m_job_name>
align_ligands_2

> <s_i_glide_gridfile>
glide-grid_MCL1

> <i_i_glide_lignum>
34

> <i_i_glide_rotatable_bonds>
6

> <r_i_docking_score>
-8.14676281640072

> <r_i_glide_ligand_efficiency>
-0.313337031400028

> <r_i_glide_ligand_efficiency_sa>
-0.928259722600899

> <r_i_glide_ligand_efficiency_ln>
-1.91324051572257

> <r_i_glide_gscore>
-8.14676281640072

> <r_i_glide_lipo>
-5.16979533953334

> <r_i_glide_hbond>
-0.2

> <r_i_glide_metal>
0

> <r_i_glide_rewards>
-1.59762156973416

> <r_i_glide_evdw>
-27.7211894989014

> <r_i_glide_ecoul>
-2.69609475135803

> <r_i_glide_erotb>
0.637301348502223

> <r_i_glide_esite>
-0.0261735679866785

> <r_i_glide_emodel>
-42.1670184487415

> <r_i_glide_energy>
-30.4172842502594

> <r_i_glide_einternal>
4.40342330932617

> <i_i_glide_confnum>
264

> <i_i_glide_posenum>
268

> <r_i_glide_eff_state_penalty>
0

> <r_glide_shape_similarity>
0.909952640533447

> <i_phase_Input_Structure_Number>
30

> <i_phase_Structure_Number>
30

> <r_phase_Similarity_to_Reference>
0.961570095745467

> <i_phase_Reference_Structure>
1

> <s_phase_Alignment_Method>
snapped core

> <s_phase_Alignment_Reason>


> <s_phase_Core_SMARTS>
a1aaaaa1AAAAa(aa2)a(a23)aaaa3

> <s_f3d_frozen_atoms>
17 18 20 22 24 16 15 14 13 12 11 4 43 10 5 9 8 7 6 35 21 42 33 34 31 32 29 30 44 28 27 26 25

> <s_m_subgroup_title>
align_ligands_2

> <s_m_subgroupid>
align_ligands_2

> <b_m_subgroup_collapsed>
0

$$$$
