57
                    3D
 Schrodinger Suite 2021-2.
 47 50  0  0  1  0            999 V2000
    4.1784  -49.4639    6.2203 O   0  0  0  0  0  0
    3.2494  -48.6379    6.3898 C   0  0  0  0  0  0
    3.5057  -47.4203    6.5722 O   0  5  0  0  0  0
    1.8694  -49.1879    6.3561 C   0  0  0  0  0  0
   -0.1751  -50.7678    6.4871 C   0  0  0  0  0  0
   -1.1857  -51.7207    6.5942 C   0  0  0  0  0  0
   -2.5063  -51.3885    6.3255 C   0  0  0  0  0  0
   -2.8117  -50.0805    5.9266 C   0  0  0  0  0  0
   -1.8118  -49.1247    5.7993 C   0  0  0  0  0  0
   -0.4872  -49.4555    6.0836 C   0  0  0  0  0  0
    0.6424  -48.5710    6.0066 C   0  0  0  0  0  0
    0.5308  -47.1337    5.6114 C   0  0  0  0  0  0
    0.4854  -46.1552    6.7424 C   0  0  0  0  0  0
   -0.7882  -46.0224    7.5175 C   0  0  0  0  0  0
   -1.8227  -45.6254    6.6920 O   0  0  0  0  0  0
   -3.1083  -45.4602    7.1320 C   0  0  0  0  0  0
   -5.7337  -45.0786    7.9666 C   0  0  0  0  0  0
   -5.3052  -44.5292    6.7686 C   0  0  0  0  0  0
   -3.9866  -44.7164    6.3549 C   0  0  0  0  0  0
   -0.9533  -52.7291    6.8958 H   0  0  0  0  0  0
   -3.2823  -52.1351    6.4120 H   0  0  0  0  0  0
   -3.8363  -49.8051    5.7082 H   0  0  0  0  0  0
   -2.0782  -48.1185    5.5148 H   0  0  0  0  0  0
    1.3252  -46.8131    4.9379 H   0  0  0  0  0  0
   -0.4099  -47.0180    5.0799 H   0  0  0  0  0  0
    1.0720  -46.6566    7.5033 H   0  0  0  0  0  0
    1.0092  -45.2578    6.4323 H   0  0  0  0  0  0
   -0.9693  -47.0216    7.9023 H   0  0  0  0  0  0
   -0.7482  -45.5094    8.4790 H   0  0  0  0  0  0
   -3.6852  -44.3134    5.4008 H   0  0  0  0  0  0
   -4.8346  -45.8169    8.7381 C   0  0  0  0  0  0
   -3.5177  -46.0130    8.3257 C   0  0  0  0  0  0
   -2.8146  -46.7222    9.3848 C   0  0  0  0  0  0
   -3.3791  -47.2518   10.5617 C   0  0  0  0  0  0
   -4.7255  -47.0659   10.8361 C   0  0  0  0  0  0
   -5.4445  -46.3135    9.9167 C   0  0  0  0  0  0
   -1.7780  -46.9084    9.5302 H   0  0  0  0  0  0
   -2.7578  -47.7777   11.2728 H   0  0  0  0  0  0
   -5.1817  -47.4522   11.7360 H   0  0  0  0  0  0
   -6.4875  -46.1226   10.1255 H   0  0  0  0  0  0
   -5.9765  -43.9497    6.1538 H   0  0  0  0  0  0
   -6.7180  -44.8465    8.3502 H   0  0  0  0  0  0
    2.4000  -51.8652    7.1575 C   0  0  0  0  0  0
    1.8241  -52.7757    7.3233 H   0  0  0  0  0  0
    3.1429  -52.0417    6.3797 H   0  0  0  0  0  0
    2.9025  -51.5798    8.0818 H   0  0  0  0  0  0
    1.5033  -50.7915    6.7395 N   0  0  0  0  0  0
  1  2  2  0  0  0
  2  3  1  0  0  0
  2  4  1  0  0  0
  4 11  2  0  0  0
  4 47  1  0  0  0
  5  6  1  0  0  0
  5 10  2  0  0  0
  5 47  1  0  0  0
  6  7  2  0  0  0
  6 20  1  0  0  0
  7  8  1  0  0  0
  7 21  1  0  0  0
  8  9  2  0  0  0
  8 22  1  0  0  0
  9 10  1  0  0  0
  9 23  1  0  0  0
 10 11  1  0  0  0
 11 12  1  0  0  0
 12 24  1  0  0  0
 12 25  1  0  0  0
 12 13  1  0  0  0
 13 14  1  0  0  0
 13 26  1  0  0  0
 13 27  1  0  0  0
 14 15  1  0  0  0
 14 28  1  0  0  0
 14 29  1  0  0  0
 15 16  1  0  0  0
 16 19  2  0  0  0
 16 32  1  0  0  0
 17 18  2  0  0  0
 17 31  1  0  0  0
 17 42  1  0  0  0
 18 19  1  0  0  0
 18 41  1  0  0  0
 19 30  1  0  0  0
 31 32  2  0  0  0
 31 36  1  0  0  0
 32 33  1  0  0  0
 33 34  2  0  0  0
 33 37  1  0  0  0
 34 35  1  0  0  0
 34 38  1  0  0  0
 35 36  2  0  0  0
 35 39  1  0  0  0
 36 40  1  0  0  0
 43 44  1  0  0  0
 43 45  1  0  0  0
 43 46  1  0  0  0
 43 47  1  0  0  0
M  CHG  1   3  -1
M  END
> <s_m_entry_id>
246

> <s_m_entry_name>
MCL1_57.1

> <r_m_Molecular_weight>
358.42075

> <s_m_Source_Path>
C:\Users\yujiethinkpad\Desktop\05A\MCL1\original

> <s_m_Source_File>
MCL1_57.sdf

> <r_user_dG.exp>
-9.03887132268158

> <s_fepmapper_entryid>
34

> <i_fepmapper_bias>
0

> <i_fepmapper_affinity>
1

> <r_fepmapper_exp_dG>
-9.03887132268

> <i_fepmapper_unit>
1

> <i_m_Source_File_Index>
1

> <s_m_job_name>
align_ligands_2

> <s_i_glide_gridfile>
glide-grid_MCL1

> <i_i_glide_lignum>
40

> <i_i_glide_rotatable_bonds>
6

> <r_i_docking_score>
-8.85753613905658

> <r_i_glide_ligand_efficiency>
-0.328056894039133

> <r_i_glide_ligand_efficiency_sa>
-0.984170681036176

> <r_i_glide_ligand_efficiency_ln>
-2.06188838527642

> <r_i_glide_gscore>
-8.85753613905658

> <r_i_glide_lipo>
-5.36373268579433

> <r_i_glide_hbond>
-0.245240957503077

> <r_i_glide_metal>
0

> <r_i_glide_rewards>
-2.11739967364723

> <r_i_glide_evdw>
-28.7001075744629

> <r_i_glide_ecoul>
-1.95088350772858

> <r_i_glide_erotb>
0.596475082770476

> <r_i_glide_esite>
0

> <r_i_glide_emodel>
-37.7832842336039

> <r_i_glide_energy>
-30.6509910821915

> <r_i_glide_einternal>
2.15502667427063

> <i_i_glide_confnum>
11

> <i_i_glide_posenum>
15

> <r_i_glide_eff_state_penalty>
0

> <r_glide_shape_similarity>
0.849912762641907

> <i_phase_Input_Structure_Number>
11

> <i_phase_Structure_Number>
11

> <r_phase_Similarity_to_Reference>
0.825770401003534

> <i_phase_Reference_Structure>
1

> <s_phase_Alignment_Method>
snapped core

> <s_phase_Alignment_Reason>


> <s_phase_Core_SMARTS>
a1aaaaa1AAAAa(aa2)a(a23)aaaa3

> <s_f3d_frozen_atoms>
32 31 17 18 19 16 15 14 13 12 11 4 47 10 5 9 8 7 6 42 41 30 28 29 26 27 24 25 23 22 21 20

> <s_m_subgroup_title>
align_ligands_2

> <s_m_subgroupid>
align_ligands_2

> <b_m_subgroup_collapsed>
0

$$$$
