62
                    3D
 Schrodinger Suite 2021-2.
 43 46  0  0  1  0            999 V2000
    4.1784  -49.4639    6.2203 O   0  0  0  0  0  0
    3.2494  -48.6379    6.3898 C   0  0  0  0  0  0
    3.5057  -47.4203    6.5722 O   0  5  0  0  0  0
    1.8694  -49.1879    6.3561 C   0  0  0  0  0  0
    1.5033  -50.7915    6.7395 S   0  0  0  0  0  0
   -0.1751  -50.7678    6.4871 C   0  0  0  0  0  0
   -1.1857  -51.7207    6.5942 C   0  0  0  0  0  0
   -2.5063  -51.3885    6.3255 C   0  0  0  0  0  0
   -2.8117  -50.0805    5.9266 C   0  0  0  0  0  0
   -1.8118  -49.1247    5.7993 C   0  0  0  0  0  0
   -0.4872  -49.4555    6.0836 C   0  0  0  0  0  0
    0.6424  -48.5710    6.0066 C   0  0  0  0  0  0
    0.5308  -47.1337    5.6114 C   0  0  0  0  0  0
    0.4854  -46.1552    6.7424 C   0  0  0  0  0  0
   -0.7882  -46.0224    7.5175 C   0  0  0  0  0  0
   -1.8227  -45.6254    6.6920 O   0  0  0  0  0  0
   -3.1083  -45.4602    7.1320 C   0  0  0  0  0  0
   -5.7337  -45.0786    7.9666 C   0  0  0  0  0  0
   -5.3052  -44.5292    6.7686 C   0  0  0  0  0  0
   -3.9866  -44.7164    6.3549 C   0  0  0  0  0  0
   -0.9421  -52.7279    6.9005 H   0  0  0  0  0  0
   -3.2850  -52.1313    6.4192 H   0  0  0  0  0  0
   -3.8378  -49.8134    5.7166 H   0  0  0  0  0  0
   -2.3468  -47.5671    5.3033 Cl  0  0  0  0  0  0
    1.3016  -46.8363    4.9059 H   0  0  0  0  0  0
   -0.3885  -47.0005    5.0399 H   0  0  0  0  0  0
    1.2761  -46.4511    7.4340 H   0  0  0  0  0  0
    0.7577  -45.1644    6.4014 H   0  0  0  0  0  0
   -1.0717  -46.9431    8.0135 H   0  0  0  0  0  0
   -0.7177  -45.2717    8.3023 H   0  0  0  0  0  0
   -3.7158  -44.3367    5.3852 H   0  0  0  0  0  0
   -4.8346  -45.8169    8.7381 C   0  0  0  0  0  0
   -3.5177  -46.0130    8.3257 C   0  0  0  0  0  0
   -2.7845  -46.5444    9.4632 C   0  0  0  0  0  0
   -3.3335  -47.1020   10.6340 C   0  0  0  0  0  0
   -4.7033  -47.0438   10.8485 C   0  0  0  0  0  0
   -5.4434  -46.3362    9.9079 C   0  0  0  0  0  0
   -1.7368  -46.4706    9.6641 H   0  0  0  0  0  0
   -2.6880  -47.5101   11.3987 H   0  0  0  0  0  0
   -5.1561  -47.4403   11.7457 H   0  0  0  0  0  0
   -6.4965  -46.1850   10.0976 H   0  0  0  0  0  0
   -5.9897  -43.9767    6.1444 H   0  0  0  0  0  0
   -6.7206  -44.8418    8.3322 H   0  0  0  0  0  0
  1  2  2  0  0  0
  2  3  1  0  0  0
  2  4  1  0  0  0
  4  5  1  0  0  0
  4 12  2  0  0  0
  5  6  1  0  0  0
  6  7  1  0  0  0
  6 11  2  0  0  0
  7  8  2  0  0  0
  7 21  1  0  0  0
  8  9  1  0  0  0
  8 22  1  0  0  0
  9 10  2  0  0  0
  9 23  1  0  0  0
 10 11  1  0  0  0
 10 24  1  0  0  0
 11 12  1  0  0  0
 12 13  1  0  0  0
 13 25  1  0  0  0
 13 26  1  0  0  0
 13 14  1  0  0  0
 14 15  1  0  0  0
 14 27  1  0  0  0
 14 28  1  0  0  0
 15 16  1  0  0  0
 15 29  1  0  0  0
 15 30  1  0  0  0
 16 17  1  0  0  0
 17 20  2  0  0  0
 17 33  1  0  0  0
 18 19  2  0  0  0
 18 32  1  0  0  0
 18 43  1  0  0  0
 19 20  1  0  0  0
 19 42  1  0  0  0
 20 31  1  0  0  0
 32 33  2  0  0  0
 32 37  1  0  0  0
 33 34  1  0  0  0
 34 35  2  0  0  0
 34 38  1  0  0  0
 35 36  1  0  0  0
 35 39  1  0  0  0
 36 37  2  0  0  0
 36 40  1  0  0  0
 37 41  1  0  0  0
M  CHG  1   3  -1
M  END
> <s_m_entry_id>
238

> <s_m_entry_name>
MCL1_62.1

> <r_m_Molecular_weight>
395.88802

> <s_m_Source_Path>
C:\Users\yujiethinkpad\Desktop\05A\MCL1\original

> <s_m_Source_File>
MCL1_62.sdf

> <r_user_dG.exp>
-7.95565704541698

> <s_fepmapper_entryid>
24

> <i_fepmapper_bias>
0

> <i_fepmapper_affinity>
1

> <r_fepmapper_exp_dG>
-7.95565704542

> <i_fepmapper_unit>
1

> <i_m_Source_File_Index>
1

> <s_m_job_name>
align_ligands_2

> <s_i_glide_gridfile>
glide-grid_MCL1

> <i_i_glide_lignum>
2

> <i_i_glide_rotatable_bonds>
6

> <r_i_docking_score>
-9.14959896118036

> <r_i_glide_ligand_efficiency>
-0.338874035599273

> <r_i_glide_ligand_efficiency_sa>
-1.01662210568094

> <r_i_glide_ligand_efficiency_ln>
-2.1298757952349

> <r_i_glide_gscore>
-9.14959896118036

> <r_i_glide_lipo>
-5.43968088761538

> <r_i_glide_hbond>
-0.2

> <r_i_glide_metal>
0

> <r_i_glide_rewards>
-2.01278412251048

> <r_i_glide_evdw>
-31.9966812133789

> <r_i_glide_ecoul>
-2.64342951774597

> <r_i_glide_erotb>
0.499214537276342

> <r_i_glide_esite>
0

> <r_i_glide_emodel>
-34.1176359836177

> <r_i_glide_energy>
-34.6401107311249

> <r_i_glide_einternal>
6.60661363601685

> <i_i_glide_confnum>
32

> <i_i_glide_posenum>
156

> <r_i_glide_eff_state_penalty>
0

> <r_glide_shape_similarity>
0.794788658618927

> <i_phase_Input_Structure_Number>
3

> <i_phase_Structure_Number>
3

> <r_phase_Similarity_to_Reference>
0.858234069729626

> <i_phase_Reference_Structure>
1

> <s_phase_Alignment_Method>
snapped core

> <s_phase_Alignment_Reason>


> <s_phase_Core_SMARTS>
a1aaaaa1AAAAa(aa2)a(a23)aaaa3

> <s_f3d_frozen_atoms>
33 32 18 19 20 17 16 15 14 13 12 4 5 11 6 10 9 8 7 43 42 31 29 30 27 28 25 26 24 23 22 21

> <s_m_subgroup_title>
align_ligands_2

> <s_m_subgroupid>
align_ligands_2

> <b_m_subgroup_collapsed>
0

$$$$
