23
                    3D
 Schrodinger Suite 2021-2.
 43 46  0  0  1  0            999 V2000
    3.2601  -47.4155    6.9078 O   0  0  0  0  0  0
    3.1541  -48.5995    6.5081 C   0  0  0  0  0  0
    4.1426  -49.3569    6.3556 O   0  5  0  0  0  0
    1.7970  -49.0978    6.2473 C   0  0  0  0  0  0
    1.6073  -50.8050    6.5580 S   0  0  0  0  0  0
   -0.1254  -50.6752    6.3568 C   0  0  0  0  0  0
   -1.0805  -51.6986    6.5274 C   0  0  0  0  0  0
   -2.4502  -51.4216    6.3428 C   0  0  0  0  0  0
   -2.8526  -50.1273    5.9506 C   0  0  0  0  0  0
   -1.8876  -49.1133    5.7628 C   0  0  0  0  0  0
   -0.5018  -49.3404    5.9764 C   0  0  0  0  0  0
    0.6353  -48.4383    5.8843 C   0  0  0  0  0  0
    0.5273  -46.9909    5.4621 C   0  0  0  0  0  0
    0.2882  -46.0325    6.6481 C   0  0  0  0  0  0
   -1.0543  -46.2061    7.4117 C   0  0  0  0  0  0
   -2.2501  -45.7086    6.7959 O   0  0  0  0  0  0
   -3.4180  -45.7673    7.5536 C   0  0  0  0  0  0
   -5.7911  -45.7963    9.1577 C   0  0  0  0  0  0
   -4.6988  -46.6060    9.5057 C   0  0  0  0  0  0
   -3.5308  -46.5893    8.7184 C   0  0  0  0  0  0
   -0.7549  -52.6872    6.8180 H   0  0  0  0  0  0
   -3.1851  -52.1999    6.4878 H   0  0  0  0  0  0
   -3.8998  -49.9075    5.7964 H   0  0  0  0  0  0
   -2.2130  -48.1271    5.4628 H   0  0  0  0  0  0
    1.4270  -46.6787    4.9273 H   0  0  0  0  0  0
   -0.2865  -46.8821    4.7474 H   0  0  0  0  0  0
    1.0842  -46.2189    7.3686 H   0  0  0  0  0  0
    0.4593  -45.0063    6.3330 H   0  0  0  0  0  0
   -1.2033  -47.2702    7.5516 H   0  0  0  0  0  0
   -0.9596  -45.7422    8.3961 H   0  0  0  0  0  0
   -2.7336  -47.2336    9.0438 H   0  0  0  0  0  0
   -5.7471  -45.0335    7.9672 C   0  0  0  0  0  0
   -4.5647  -45.0060    7.1516 C   0  0  0  0  0  0
   -4.5742  -44.2080    5.9529 C   0  0  0  0  0  0
   -5.7911  -43.6502    5.4990 C   0  0  0  0  0  0
   -6.9812  -43.8066    6.2563 C   0  0  0  0  0  0
   -6.9475  -44.4295    7.5255 C   0  0  0  0  0  0
   -3.6962  -44.1567    5.3262 H   0  0  0  0  0  0
   -5.8220  -43.1355    4.5510 H   0  0  0  0  0  0
   -7.9154  -43.3976    5.8881 H   0  0  0  0  0  0
   -7.8540  -44.5063    8.1106 H   0  0  0  0  0  0
   -4.7560  -47.2636   10.3514 H   0  0  0  0  0  0
   -6.6955  -45.8425    9.7501 H   0  0  0  0  0  0
  1  2  2  0  0  0
  2  3  1  0  0  0
  2  4  1  0  0  0
  4  5  1  0  0  0
  4 12  2  0  0  0
  5  6  1  0  0  0
  6  7  1  0  0  0
  6 11  2  0  0  0
  7  8  2  0  0  0
  7 21  1  0  0  0
  8  9  1  0  0  0
  8 22  1  0  0  0
  9 10  2  0  0  0
  9 23  1  0  0  0
 10 11  1  0  0  0
 10 24  1  0  0  0
 11 12  1  0  0  0
 12 13  1  0  0  0
 13 25  1  0  0  0
 13 26  1  0  0  0
 13 14  1  0  0  0
 14 15  1  0  0  0
 14 27  1  0  0  0
 14 28  1  0  0  0
 15 16  1  0  0  0
 15 29  1  0  0  0
 15 30  1  0  0  0
 16 17  1  0  0  0
 17 20  2  0  0  0
 17 33  1  0  0  0
 18 19  2  0  0  0
 18 32  1  0  0  0
 18 43  1  0  0  0
 19 20  1  0  0  0
 19 42  1  0  0  0
 20 31  1  0  0  0
 32 33  2  0  0  0
 32 37  1  0  0  0
 33 34  1  0  0  0
 34 35  2  0  0  0
 34 38  1  0  0  0
 35 36  1  0  0  0
 35 39  1  0  0  0
 36 37  2  0  0  0
 36 40  1  0  0  0
 37 41  1  0  0  0
M  CHG  1   3  -1
M  END
> <s_m_entry_id>
365

> <s_m_entry_name>
MCL1_23.1

> <r_m_Molecular_weight>
361.44299

> <s_m_Source_Path>
C:\Users\yujiethinkpad\Desktop\05A\MCL1\original

> <s_m_Source_File>
MCL1_23.sdf

> <r_user_dG.exp>
-8.82854391662772

> <s_fepmapper_entryid>
21

> <i_fepmapper_bias>
0

> <i_fepmapper_affinity>
1

> <r_fepmapper_exp_dG>
-8.82854391663

> <i_fepmapper_unit>
1

> <i_m_Source_File_Index>
1

> <s_m_job_name>
glide-dock_SP_redock_5965

> <s_i_glide_gridfile>
glide-grid_MCL1

> <i_i_glide_lignum>
9

> <i_i_glide_rotatable_bonds>
6

> <r_i_docking_score>
-9.04597993367733

> <r_i_glide_ligand_efficiency>
-0.347922305141436

> <r_i_glide_ligand_efficiency_sa>
-1.03071845997334

> <r_i_glide_ligand_efficiency_ln>
-2.12441870514296

> <r_i_glide_gscore>
-9.04597993367733

> <r_i_glide_lipo>
-5.56280432606947

> <r_i_glide_hbond>
-0.2

> <r_i_glide_metal>
0

> <r_i_glide_rewards>
-1.84476422727273

> <r_i_glide_evdw>
-31.8107643127441

> <r_i_glide_ecoul>
-2.7093825340271

> <r_i_glide_erotb>
0.587606020905209

> <r_i_glide_esite>
-0.0290718054990676

> <r_i_glide_emodel>
-45.1367424574758

> <r_i_glide_energy>
-34.5201468467712

> <r_i_glide_einternal>
2.82803559303284

> <i_i_glide_confnum>
53

> <i_i_glide_posenum>
39

> <r_i_glide_eff_state_penalty>
0

> <r_glide_shape_similarity>
0.899033784866333

> <s_m_subgroup_title>
glide-dock_SP_redock_5965_lib1

> <s_m_subgroupid>
glide-dock_SP_redock_5965_lib1

> <b_m_subgroup_collapsed>
0

$$$$
