26
                    3D
 Schrodinger Suite 2021-2.
 43 46  0  0  1  0            999 V2000
    3.9819  -49.5264    6.3437 O   0  0  0  0  0  0
    3.0457  -48.7151    6.5308 C   0  0  0  0  0  0
    3.2596  -47.5282    6.8878 O   0  5  0  0  0  0
    1.6414  -49.1535    6.3253 C   0  0  0  0  0  0
   -0.0889  -50.5809    6.3827 C   0  0  0  0  0  0
   -0.9330  -51.7004    6.5656 C   0  0  0  0  0  0
   -2.3268  -51.5472    6.3624 C   0  0  0  0  0  0
   -2.8500  -50.2991    5.9504 C   0  0  0  0  0  0
   -1.9835  -49.2055    5.7325 C   0  0  0  0  0  0
   -0.5899  -49.3127    5.9823 C   0  0  0  0  0  0
    0.5348  -48.4215    5.9327 C   0  0  0  0  0  0
    0.4836  -47.0046    5.4427 C   0  0  0  0  0  0
    0.4174  -45.9199    6.5375 C   0  0  0  0  0  0
   -0.8322  -45.8056    7.4601 C   0  0  0  0  0  0
   -1.9767  -46.4650    6.9309 O   0  0  0  0  0  0
   -3.1413  -45.7271    6.9072 C   0  0  0  0  0  0
   -5.5804  -44.2226    6.7556 C   0  0  0  0  0  0
   -4.6596  -44.2035    5.6847 C   0  0  0  0  0  0
   -3.4716  -44.9808    5.7569 C   0  0  0  0  0  0
   -0.5181  -52.6479    6.8754 H   0  0  0  0  0  0
   -2.9908  -52.3867    6.5118 H   0  0  0  0  0  0
   -3.9111  -50.1868    5.7769 H   0  0  0  0  0  0
   -2.3968  -48.2693    5.3901 H   0  0  0  0  0  0
    1.3594  -46.8114    4.8213 H   0  0  0  0  0  0
   -0.3644  -46.8910    4.7693 H   0  0  0  0  0  0
    1.3121  -45.9635    7.1546 H   0  0  0  0  0  0
    0.5115  -45.0055    5.9774 H   0  0  0  0  0  0
   -0.6318  -46.2056    8.4449 H   0  0  0  0  0  0
   -1.0444  -44.7592    7.6757 H   0  0  0  0  0  0
   -2.7761  -44.9614    4.9354 H   0  0  0  0  0  0
   -5.3135  -45.0432    7.8850 C   0  0  0  0  0  0
   -4.0968  -45.8069    7.9467 C   0  0  0  0  0  0
   -3.8788  -46.7223    8.9910 C   0  0  0  0  0  0
   -4.8824  -46.9200    9.9507 C   0  0  0  0  0  0
   -6.0494  -46.1177    9.9508 C   0  0  0  0  0  0
   -6.2686  -45.1712    8.9218 C   0  0  0  0  0  0
   -2.9887  -47.3333    9.0218 H   0  0  0  0  0  0
   -4.7331  -47.6945   10.6915 H   0  0  0  0  0  0
   -6.7870  -46.2535   10.7252 H   0  0  0  0  0  0
   -7.1852  -44.5992    8.9032 H   0  0  0  0  0  0
   -4.8668  -43.6192    4.8000 H   0  0  0  0  0  0
   -6.5118  -43.6834    6.6774 H   0  0  0  0  0  0
    1.2876  -50.4803    6.5632 O   0  0  0  0  0  0
  1  2  2  0  0  0
  2  3  1  0  0  0
  2  4  1  0  0  0
  4 11  2  0  0  0
  4 43  1  0  0  0
  5  6  1  0  0  0
  5 10  2  0  0  0
  5 43  1  0  0  0
  6  7  2  0  0  0
  6 20  1  0  0  0
  7  8  1  0  0  0
  7 21  1  0  0  0
  8  9  2  0  0  0
  8 22  1  0  0  0
  9 10  1  0  0  0
  9 23  1  0  0  0
 10 11  1  0  0  0
 11 12  1  0  0  0
 12 24  1  0  0  0
 12 25  1  0  0  0
 12 13  1  0  0  0
 13 14  1  0  0  0
 13 26  1  0  0  0
 13 27  1  0  0  0
 14 15  1  0  0  0
 14 28  1  0  0  0
 14 29  1  0  0  0
 15 16  1  0  0  0
 16 19  2  0  0  0
 16 32  1  0  0  0
 17 18  2  0  0  0
 17 31  1  0  0  0
 17 42  1  0  0  0
 18 19  1  0  0  0
 18 41  1  0  0  0
 19 30  1  0  0  0
 31 32  2  0  0  0
 31 36  1  0  0  0
 32 33  1  0  0  0
 33 34  2  0  0  0
 33 37  1  0  0  0
 34 35  1  0  0  0
 34 38  1  0  0  0
 35 36  2  0  0  0
 35 39  1  0  0  0
 36 40  1  0  0  0
M  CHG  1   3  -1
M  END
> <s_m_entry_id>
374

> <s_m_entry_name>
MCL1_26.1

> <r_m_Molecular_weight>
345.37839

> <s_m_Source_Path>
C:\Users\yujiethinkpad\Desktop\05A\MCL1\original

> <s_m_Source_File>
MCL1_26.sdf

> <r_user_dG.exp>
-8.23584030891924

> <s_fepmapper_entryid>
2

> <i_fepmapper_bias>
0

> <i_fepmapper_affinity>
1

> <r_fepmapper_exp_dG>
-8.23584030892

> <i_fepmapper_unit>
1

> <i_m_Source_File_Index>
1

> <s_m_job_name>
glide-dock_SP_redock_5965

> <s_i_glide_gridfile>
glide-grid_MCL1

> <i_i_glide_lignum>
10

> <i_i_glide_rotatable_bonds>
6

> <r_i_docking_score>
-8.63947750746672

> <r_i_glide_ligand_efficiency>
-0.332287596441028

> <r_i_glide_ligand_efficiency_sa>
-0.984400696967988

> <r_i_glide_ligand_efficiency_ln>
-2.02895294419065

> <r_i_glide_gscore>
-8.63947750746672

> <r_i_glide_lipo>
-5.30873142897714

> <r_i_glide_hbond>
-0.2

> <r_i_glide_metal>
0

> <r_i_glide_rewards>
-1.95430922727273

> <r_i_glide_evdw>
-28.1111392974854

> <r_i_glide_ecoul>
-2.61374950408936

> <r_i_glide_erotb>
0.637125540834659

> <r_i_glide_esite>
-0.0159430015638361

> <r_i_glide_emodel>
-37.7723866300158

> <r_i_glide_energy>
-30.7248888015747

> <r_i_glide_einternal>
12.3885459899902

> <i_i_glide_confnum>
51

> <i_i_glide_posenum>
52

> <r_i_glide_eff_state_penalty>
0

> <r_glide_shape_similarity>
0.889209449291229

> <s_m_subgroup_title>
glide-dock_SP_redock_5965_lib1

> <s_m_subgroupid>
glide-dock_SP_redock_5965_lib1

> <b_m_subgroup_collapsed>
0

$$$$
