28
                    3D
 Schrodinger Suite 2021-2.
 41 43  0  0  1  0            999 V2000
    3.2584  -47.5633    6.7724 O   0  0  0  0  0  0
    3.0153  -48.7529    6.4848 C   0  0  0  0  0  0
    3.9148  -49.6127    6.4102 O   0  5  0  0  0  0
    1.6304  -49.1632    6.2813 C   0  0  0  0  0  0
   -0.1061  -50.6292    6.3567 C   0  0  0  0  0  0
   -0.9966  -51.6940    6.5329 C   0  0  0  0  0  0
   -2.3728  -51.4868    6.3485 C   0  0  0  0  0  0
   -2.8431  -50.2279    5.9616 C   0  0  0  0  0  0
   -1.9464  -49.1780    5.7626 C   0  0  0  0  0  0
   -0.5723  -49.3540    5.9789 C   0  0  0  0  0  0
    0.5231  -48.4703    5.9043 C   0  0  0  0  0  0
    0.4151  -47.0775    5.4525 C   0  0  0  0  0  0
    0.2148  -46.1411    6.6230 C   0  0  0  0  0  0
   -1.1236  -46.2300    7.3916 C   0  0  0  0  0  0
   -2.3016  -45.6919    6.7992 O   0  0  0  0  0  0
   -3.4618  -45.7529    7.5537 C   0  0  0  0  0  0
   -4.5998  -45.0070    7.1586 C   0  0  0  0  0  0
   -5.7534  -44.9911    7.9588 C   0  0  0  0  0  0
   -5.8305  -45.7650    9.1189 C   0  0  0  0  0  0
   -4.7486  -46.5662    9.4761 C   0  0  0  0  0  0
   -3.5723  -46.5432    8.7214 C   0  0  0  0  0  0
   -0.6210  -52.6621    6.8297 H   0  0  0  0  0  0
   -3.0701  -52.2987    6.4934 H   0  0  0  0  0  0
   -3.8988  -50.0648    5.8052 H   0  0  0  0  0  0
   -2.3186  -48.2119    5.4617 H   0  0  0  0  0  0
   -0.4120  -46.9884    4.7513 H   0  0  0  0  0  0
    1.3118  -46.8210    4.8896 H   0  0  0  0  0  0
    0.4565  -45.1748    6.2391 H   0  0  0  0  0  0
    1.0048  -46.3477    7.3426 H   0  0  0  0  0  0
   -0.9764  -45.7640    8.3674 H   0  0  0  0  0  0
   -1.3093  -47.2848    7.5480 H   0  0  0  0  0  0
   -2.7666  -47.1651    9.0746 H   0  0  0  0  0  0
    1.2613  -50.4813    6.4814 N   0  0  0  0  0  0
    1.9477  -51.1723    6.7450 H   0  0  0  0  0  0
   -4.8138  -47.2062   10.3397 H   0  0  0  0  0  0
   -6.7322  -45.7849    9.7131 H   0  0  0  0  0  0
   -6.6084  -44.4009    7.6653 H   0  0  0  0  0  0
   -4.6063  -44.1820    5.8900 C   0  0  0  0  0  0
   -4.4987  -43.1215    6.1077 H   0  0  0  0  0  0
   -3.7930  -44.4604    5.2237 H   0  0  0  0  0  0
   -5.5415  -44.3101    5.3477 H   0  0  0  0  0  0
  1  2  2  0  0  0
  2  3  1  0  0  0
  2  4  1  0  0  0
  4 11  2  0  0  0
  4 33  1  0  0  0
  5  6  1  0  0  0
  5 10  2  0  0  0
  5 33  1  0  0  0
  6  7  2  0  0  0
  6 22  1  0  0  0
  7  8  1  0  0  0
  7 23  1  0  0  0
  8  9  2  0  0  0
  8 24  1  0  0  0
  9 10  1  0  0  0
  9 25  1  0  0  0
 10 11  1  0  0  0
 11 12  1  0  0  0
 12 26  1  0  0  0
 12 27  1  0  0  0
 12 13  1  0  0  0
 13 14  1  0  0  0
 13 28  1  0  0  0
 13 29  1  0  0  0
 14 15  1  0  0  0
 14 30  1  0  0  0
 14 31  1  0  0  0
 15 16  1  0  0  0
 16 17  1  0  0  0
 16 21  2  0  0  0
 17 18  2  0  0  0
 17 38  1  0  0  0
 18 19  1  0  0  0
 18 37  1  0  0  0
 19 20  2  0  0  0
 19 36  1  0  0  0
 20 21  1  0  0  0
 20 35  1  0  0  0
 21 32  1  0  0  0
 33 34  1  0  0  0
 38 39  1  0  0  0
 38 40  1  0  0  0
 38 41  1  0  0  0
M  CHG  1   3  -1
M  END
> <s_m_entry_id>
400

> <s_m_entry_name>
MCL1_28.1

> <r_m_Molecular_weight>
308.36021

> <s_m_Source_Path>
C:\Users\yujiethinkpad\Desktop\05A\MCL1\original

> <s_m_Source_File>
MCL1_28.sdf

> <r_user_dG.exp>
-6.62149034253618

> <s_fepmapper_entryid>
14

> <i_fepmapper_bias>
0

> <i_fepmapper_affinity>
1

> <r_fepmapper_exp_dG>
-6.62149034254

> <i_fepmapper_unit>
1

> <i_m_Source_File_Index>
1

> <s_m_job_name>
glide-dock_SP_redock_5965

> <s_i_glide_gridfile>
glide-grid_MCL1

> <i_i_glide_lignum>
12

> <i_i_glide_rotatable_bonds>
6

> <r_i_docking_score>
-7.63226025312851

> <r_i_glide_ligand_efficiency>
-0.331837402309935

> <r_i_glide_ligand_efficiency_sa>
-0.943701430122621

> <r_i_glide_ligand_efficiency_ln>
-1.84554973471622

> <r_i_glide_gscore>
-7.63226025312851

> <r_i_glide_lipo>
-4.49431445022235

> <r_i_glide_hbond>
-0.2

> <r_i_glide_metal>
0

> <r_i_glide_rewards>
-1.99836357575758

> <r_i_glide_evdw>
-29.3745231628418

> <r_i_glide_ecoul>
-2.88809585571289

> <r_i_glide_erotb>
0.972874471200538

> <r_i_glide_esite>
-0.0105161618500944

> <r_i_glide_emodel>
-41.1303787847522

> <r_i_glide_energy>
-32.2626190185547

> <r_i_glide_einternal>
6.62848377227783

> <i_i_glide_confnum>
12

> <i_i_glide_posenum>
285

> <r_i_glide_eff_state_penalty>
0

> <r_glide_shape_similarity>
0.893025517463684

> <s_m_subgroup_title>
glide-dock_SP_redock_5965_lib1

> <s_m_subgroupid>
glide-dock_SP_redock_5965_lib1

> <b_m_subgroup_collapsed>
0

$$$$
