30
                    3D
 Schrodinger Suite 2021-2.
 41 43  0  0  1  0            999 V2000
    3.9388  -49.6297    6.5294 O   0  0  0  0  0  0
    3.0391  -48.7697    6.5478 C   0  0  0  0  0  0
    3.2599  -47.5675    6.8015 O   0  5  0  0  0  0
    1.6618  -49.1720    6.3049 C   0  0  0  0  0  0
   -0.0989  -50.6061    6.3577 C   0  0  0  0  0  0
   -1.0084  -51.6609    6.5272 C   0  0  0  0  0  0
   -2.3791  -51.4241    6.3421 C   0  0  0  0  0  0
   -2.8247  -50.1543    5.9584 C   0  0  0  0  0  0
   -1.9051  -49.1212    5.7610 C   0  0  0  0  0  0
   -0.5345  -49.3159    5.9799 C   0  0  0  0  0  0
    0.5828  -48.4476    5.9135 C   0  0  0  0  0  0
    0.5583  -47.0331    5.4862 C   0  0  0  0  0  0
    0.3156  -46.0992    6.6612 C   0  0  0  0  0  0
   -1.1518  -45.8066    6.9546 C   0  0  0  0  0  0
   -1.9367  -46.7378    7.6569 O   0  0  0  0  0  0
   -3.2021  -46.2941    7.9665 C   0  0  0  0  0  0
   -3.9312  -45.4061    7.1596 C   0  0  0  0  0  0
   -5.2216  -45.0060    7.5260 C   0  0  0  0  0  0
   -5.8087  -45.4477    8.7123 C   0  0  0  0  0  0
   -5.1162  -46.3762    9.4875 C   0  0  0  0  0  0
   -3.8243  -46.7890    9.1204 C   0  0  0  0  0  0
   -0.6570  -52.6396    6.8170 H   0  0  0  0  0  0
   -3.0910  -52.2245    6.4843 H   0  0  0  0  0  0
   -3.8789  -49.9730    5.8032 H   0  0  0  0  0  0
   -2.2623  -48.1469    5.4637 H   0  0  0  0  0  0
   -0.2012  -46.8908    4.7220 H   0  0  0  0  0  0
    1.5018  -46.7732    5.0037 H   0  0  0  0  0  0
    0.7532  -45.1491    6.3517 H   0  0  0  0  0  0
    0.8820  -46.3772    7.5485 H   0  0  0  0  0  0
   -1.6157  -45.5615    6.0038 H   0  0  0  0  0  0
   -1.1617  -44.9480    7.6106 H   0  0  0  0  0  0
   -3.5507  -45.0226    6.2265 H   0  0  0  0  0  0
   -3.2996  -47.5011    9.7374 H   0  0  0  0  0  0
    1.2687  -50.4835    6.4949 N   0  0  0  0  0  0
    1.9349  -51.1894    6.7672 H   0  0  0  0  0  0
   -5.5960  -46.7972   10.3509 H   0  0  0  0  0  0
   -6.8069  -45.1415    8.9908 H   0  0  0  0  0  0
   -5.9751  -44.1093    6.5845 C   0  0  0  0  0  0
   -6.9285  -43.8058    7.0152 H   0  0  0  0  0  0
   -6.1887  -44.6062    5.6405 H   0  0  0  0  0  0
   -5.3763  -43.2301    6.3510 H   0  0  0  0  0  0
  1  2  2  0  0  0
  2  3  1  0  0  0
  2  4  1  0  0  0
  4 11  2  0  0  0
  4 34  1  0  0  0
  5  6  1  0  0  0
  5 10  2  0  0  0
  5 34  1  0  0  0
  6  7  2  0  0  0
  6 22  1  0  0  0
  7  8  1  0  0  0
  7 23  1  0  0  0
  8  9  2  0  0  0
  8 24  1  0  0  0
  9 10  1  0  0  0
  9 25  1  0  0  0
 10 11  1  0  0  0
 11 12  1  0  0  0
 12 26  1  0  0  0
 12 27  1  0  0  0
 12 13  1  0  0  0
 13 14  1  0  0  0
 13 28  1  0  0  0
 13 29  1  0  0  0
 14 15  1  0  0  0
 14 30  1  0  0  0
 14 31  1  0  0  0
 15 16  1  0  0  0
 16 17  1  0  0  0
 16 21  2  0  0  0
 17 18  2  0  0  0
 17 32  1  0  0  0
 18 19  1  0  0  0
 18 38  1  0  0  0
 19 20  2  0  0  0
 19 37  1  0  0  0
 20 21  1  0  0  0
 20 36  1  0  0  0
 21 33  1  0  0  0
 34 35  1  0  0  0
 38 39  1  0  0  0
 38 40  1  0  0  0
 38 41  1  0  0  0
M  CHG  1   3  -1
M  END
> <s_m_entry_id>
402

> <s_m_entry_name>
MCL1_30.1

> <r_m_Molecular_weight>
308.36021

> <s_m_Source_Path>
C:\Users\yujiethinkpad\Desktop\05A\MCL1\original

> <s_m_Source_File>
MCL1_30.sdf

> <r_user_dG.exp>
-7.85321195175529

> <s_fepmapper_entryid>
18

> <i_fepmapper_bias>
0

> <i_fepmapper_affinity>
1

> <r_fepmapper_exp_dG>
-7.85321195176

> <i_fepmapper_unit>
1

> <i_m_Source_File_Index>
1

> <s_m_job_name>
glide-dock_SP_redock_5965

> <s_i_glide_gridfile>
glide-grid_MCL1

> <i_i_glide_lignum>
14

> <i_i_glide_rotatable_bonds>
6

> <r_i_docking_score>
-7.37956494666642

> <r_i_glide_ligand_efficiency>
-0.320850649855062

> <r_i_glide_ligand_efficiency_sa>
-0.912456567633059

> <r_i_glide_ligand_efficiency_ln>
-1.78444571829933

> <r_i_glide_gscore>
-7.37956494666642

> <r_i_glide_lipo>
-4.45979893896655

> <r_i_glide_hbond>
-0.2

> <r_i_glide_metal>
0

> <r_i_glide_rewards>
-1.87780507966102

> <r_i_glide_evdw>
-28.9285831451416

> <r_i_glide_ecoul>
-2.36396431922913

> <r_i_glide_erotb>
0.972874471200538

> <r_i_glide_esite>
-0.0138115940979363

> <r_i_glide_emodel>
-39.2609207507764

> <r_i_glide_energy>
-31.2925474643707

> <r_i_glide_einternal>
4.68367195129395

> <i_i_glide_confnum>
264

> <i_i_glide_posenum>
100

> <r_i_glide_eff_state_penalty>
0

> <r_glide_shape_similarity>
0.893522560596466

> <s_m_subgroup_title>
glide-dock_SP_redock_5965_lib1

> <s_m_subgroupid>
glide-dock_SP_redock_5965_lib1

> <b_m_subgroup_collapsed>
0

$$$$
