40
                    3D
 Schrodinger Suite 2021-2.
 49 52  0  0  1  0            999 V2000
    3.2596  -47.5210    6.8476 O   0  0  0  0  0  0
    3.0545  -48.7371    6.6169 C   0  0  0  0  0  0
    3.9644  -49.5962    6.6510 O   0  5  0  0  0  0
    1.6708  -49.1597    6.3332 C   0  0  0  0  0  0
   -0.0974  -50.6174    6.3717 C   0  0  0  0  0  0
   -1.0044  -51.6864    6.5482 C   0  0  0  0  0  0
   -2.3849  -51.4692    6.3458 C   0  0  0  0  0  0
   -2.8476  -50.2053    5.9292 C   0  0  0  0  0  0
   -1.9291  -49.1624    5.6977 C   0  0  0  0  0  0
   -0.5447  -49.3283    5.9515 C   0  0  0  0  0  0
    0.5898  -48.4475    5.8786 C   0  0  0  0  0  0
    0.5838  -47.0386    5.3725 C   0  0  0  0  0  0
    0.3672  -46.0062    6.4774 C   0  0  0  0  0  0
   -1.0979  -45.8320    6.9189 C   0  0  0  0  0  0
   -1.6985  -46.9644    7.5405 O   0  0  0  0  0  0
   -2.9582  -46.7863    8.0778 C   0  0  0  0  0  0
   -3.6884  -45.6076    7.8837 C   0  0  0  0  0  0
   -4.9044  -45.4059    8.5563 C   0  0  0  0  0  0
   -5.4473  -46.3488    9.4357 C   0  0  0  0  0  0
   -4.7629  -47.5619    9.5777 C   0  0  0  0  0  0
   -3.5589  -47.7959    8.8724 C   0  0  0  0  0  0
   -0.6462  -52.6548    6.8664 H   0  0  0  0  0  0
   -3.0876  -52.2755    6.5022 H   0  0  0  0  0  0
   -3.9036  -50.0434    5.7605 H   0  0  0  0  0  0
   -2.2941  -48.2029    5.3628 H   0  0  0  0  0  0
    1.5261  -46.8290    4.8652 H   0  0  0  0  0  0
   -0.1835  -46.9376    4.6083 H   0  0  0  0  0  0
    1.0307  -46.2091    7.3087 H   0  0  0  0  0  0
    0.7127  -45.0519    6.0863 H   0  0  0  0  0  0
   -1.1412  -45.0112    7.6298 H   0  0  0  0  0  0
   -1.6936  -45.5882    6.0363 H   0  0  0  0  0  0
   -3.3207  -44.8275    7.2417 H   0  0  0  0  0  0
   -3.1132  -48.7629    8.9858 H   0  0  0  0  0  0
    1.2763  -50.4811    6.5451 N   0  0  0  0  0  0
    1.9389  -51.1824    6.8562 H   0  0  0  0  0  0
   -5.1628  -48.3107   10.2364 H   0  0  0  0  0  0
   -6.3712  -46.1608    9.9618 H   0  0  0  0  0  0
   -5.5417  -44.2387    8.3510 O   0  0  0  0  0  0
   -7.7029  -44.0454    4.8249 C   0  0  0  0  0  0
   -6.3065  -43.7794    4.7742 C   0  0  0  0  0  0
   -5.5401  -43.8300    5.9557 C   0  0  0  0  0  0
   -6.1869  -44.2060    7.1662 C   0  0  0  0  0  0
   -7.5591  -44.4739    7.2197 C   0  0  0  0  0  0
   -8.3303  -44.3438    6.0524 C   0  0  0  0  0  0
   -8.3389  -44.0067    3.9513 H   0  0  0  0  0  0
   -5.8205  -43.5077    3.8519 H   0  0  0  0  0  0
   -4.4921  -43.5796    5.9264 H   0  0  0  0  0  0
   -8.0134  -44.7390    8.1619 H   0  0  0  0  0  0
   -9.3932  -44.5249    6.0701 H   0  0  0  0  0  0
  1  2  2  0  0  0
  2  3  1  0  0  0
  2  4  1  0  0  0
  4 11  2  0  0  0
  4 34  1  0  0  0
  5  6  1  0  0  0
  5 10  2  0  0  0
  5 34  1  0  0  0
  6  7  2  0  0  0
  6 22  1  0  0  0
  7  8  1  0  0  0
  7 23  1  0  0  0
  8  9  2  0  0  0
  8 24  1  0  0  0
  9 10  1  0  0  0
  9 25  1  0  0  0
 10 11  1  0  0  0
 11 12  1  0  0  0
 12 26  1  0  0  0
 12 27  1  0  0  0
 12 13  1  0  0  0
 13 14  1  0  0  0
 13 28  1  0  0  0
 13 29  1  0  0  0
 14 15  1  0  0  0
 14 30  1  0  0  0
 14 31  1  0  0  0
 15 16  1  0  0  0
 16 17  1  0  0  0
 16 21  2  0  0  0
 17 18  2  0  0  0
 17 32  1  0  0  0
 18 19  1  0  0  0
 18 38  1  0  0  0
 19 20  2  0  0  0
 19 37  1  0  0  0
 20 21  1  0  0  0
 20 36  1  0  0  0
 21 33  1  0  0  0
 34 35  1  0  0  0
 38 42  1  0  0  0
 39 40  2  0  0  0
 39 44  1  0  0  0
 39 45  1  0  0  0
 40 41  1  0  0  0
 40 46  1  0  0  0
 41 42  2  0  0  0
 41 47  1  0  0  0
 42 43  1  0  0  0
 43 44  2  0  0  0
 43 48  1  0  0  0
 44 49  1  0  0  0
M  CHG  1   3  -1
M  END
> <s_m_entry_id>
371

> <s_m_entry_name>
MCL1_40.1

> <r_m_Molecular_weight>
386.4313

> <s_m_Source_Path>
C:\Users\yujiethinkpad\Desktop\05A\MCL1\original

> <s_m_Source_File>
MCL1_40.sdf

> <r_user_dG.exp>
-7.25302544244784

> <s_fepmapper_entryid>
23

> <i_fepmapper_bias>
0

> <i_fepmapper_affinity>
1

> <r_fepmapper_exp_dG>
-7.25302544245

> <i_fepmapper_unit>
1

> <i_m_Source_File_Index>
1

> <s_m_job_name>
glide-dock_SP_redock_5965

> <s_i_glide_gridfile>
glide-grid_MCL1

> <i_i_glide_lignum>
24

> <i_i_glide_rotatable_bonds>
8

> <r_i_docking_score>
-8.87720490944045

> <r_i_glide_ligand_efficiency>
-0.306110514118636

> <r_i_glide_ligand_efficiency_sa>
-0.940468481990419

> <r_i_glide_ligand_efficiency_ln>
-2.03265481776808

> <r_i_glide_gscore>
-8.87720490944045

> <r_i_glide_lipo>
-6.19024712671191

> <r_i_glide_hbond>
-0.2

> <r_i_glide_metal>
0

> <r_i_glide_rewards>
-1.66519401999266

> <r_i_glide_evdw>
-27.733512878418

> <r_i_glide_ecoul>
-2.1951014995575

> <r_i_glide_erotb>
0.912416869947118

> <r_i_glide_esite>
-0.0182397638284754

> <r_i_glide_emodel>
-32.8552069473673

> <r_i_glide_energy>
-29.9286143779755

> <r_i_glide_einternal>
9.27027606964111

> <i_i_glide_confnum>
39

> <i_i_glide_posenum>
28

> <r_i_glide_eff_state_penalty>
0

> <r_glide_shape_similarity>
0.776233553886414

> <s_m_subgroup_title>
glide-dock_SP_redock_5965_lib1

> <s_m_subgroupid>
glide-dock_SP_redock_5965_lib1

> <b_m_subgroup_collapsed>
0

$$$$
