46
                    3D
 Schrodinger Suite 2021-2.
 45 48  0  0  1  0            999 V2000
    4.0089  -49.5834    6.5645 O   0  0  0  0  0  0
    3.0815  -48.7340    6.5644 C   0  0  0  0  0  0
    3.2619  -47.5151    6.8050 O   0  5  0  0  0  0
    1.6964  -49.1689    6.3072 C   0  0  0  0  0  0
   -0.0833  -50.6181    6.3594 C   0  0  0  0  0  0
   -1.0044  -51.6829    6.5352 C   0  0  0  0  0  0
   -2.3830  -51.4467    6.3478 C   0  0  0  0  0  0
   -2.8310  -50.1672    5.9591 C   0  0  0  0  0  0
   -1.9132  -49.1162    5.7439 C   0  0  0  0  0  0
   -0.5244  -49.3101    5.9541 C   0  0  0  0  0  0
    0.6131  -48.4376    5.8753 C   0  0  0  0  0  0
    0.6195  -47.0053    5.4257 C   0  0  0  0  0  0
    0.4276  -46.0219    6.5932 C   0  0  0  0  0  0
   -0.9406  -46.1509    7.2742 C   0  0  0  0  0  0
   -1.9267  -45.8157    6.3187 O   0  0  0  0  0  0
   -3.1639  -45.4987    6.8164 C   0  0  0  0  0  0
   -5.2570  -44.2053    6.4592 C   0  0  0  0  0  0
   -3.9587  -44.6060    6.0312 C   0  0  0  0  0  0
   -0.6487  -52.6571    6.8486 H   0  0  0  0  0  0
   -3.0935  -52.2463    6.4992 H   0  0  0  0  0  0
   -3.8858  -49.9840    5.8112 H   0  0  0  0  0  0
   -2.2685  -48.1464    5.4343 H   0  0  0  0  0  0
    1.5348  -46.7683    4.8893 H   0  0  0  0  0  0
   -0.1763  -46.8586    4.7026 H   0  0  0  0  0  0
    1.2053  -46.2059    7.3374 H   0  0  0  0  0  0
    0.5829  -45.0029    6.2504 H   0  0  0  0  0  0
   -1.1476  -47.1830    7.5504 H   0  0  0  0  0  0
   -0.9775  -45.5265    8.1637 H   0  0  0  0  0  0
   -3.5648  -44.2158    5.1037 H   0  0  0  0  0  0
   -3.6553  -46.0311    8.0388 C   0  0  0  0  0  0
   -5.8615  -43.5282    5.8716 H   0  0  0  0  0  0
   -3.0654  -46.6921    8.6462 H   0  0  0  0  0  0
    1.2948  -50.4926    6.5313 N   0  0  0  0  0  0
   -6.7679  -45.0221    9.8289 C   0  0  0  0  0  0
   -5.5931  -46.0281    9.7546 C   0  0  0  0  0  0
   -4.9358  -45.6399    8.4534 C   0  0  0  0  0  0
   -5.7298  -44.7570    7.6927 C   0  0  0  0  0  0
   -7.0488  -44.5016    8.3749 C   0  0  0  0  0  0
   -7.3266  -43.4498    8.3490 H   0  0  0  0  0  0
   -7.8344  -45.0864    7.8934 H   0  0  0  0  0  0
   -6.3765  -44.1944   10.4024 H   0  0  0  0  0  0
   -7.6376  -45.3664   10.3764 H   0  0  0  0  0  0
   -5.9284  -47.0615    9.7060 H   0  0  0  0  0  0
   -4.8874  -45.8888   10.5749 H   0  0  0  0  0  0
    1.9554  -51.1953    6.8569 H   0  0  0  0  0  0
  1  2  2  0  0  0
  2  3  1  0  0  0
  2  4  1  0  0  0
  4 11  2  0  0  0
  4 33  1  0  0  0
  5  6  1  0  0  0
  5 10  2  0  0  0
  5 33  1  0  0  0
  6  7  2  0  0  0
  6 19  1  0  0  0
  7  8  1  0  0  0
  7 20  1  0  0  0
  8  9  2  0  0  0
  8 21  1  0  0  0
  9 10  1  0  0  0
  9 22  1  0  0  0
 10 11  1  0  0  0
 11 12  1  0  0  0
 12 23  1  0  0  0
 12 24  1  0  0  0
 12 13  1  0  0  0
 13 14  1  0  0  0
 13 25  1  0  0  0
 13 26  1  0  0  0
 14 15  1  0  0  0
 14 27  1  0  0  0
 14 28  1  0  0  0
 15 16  1  0  0  0
 16 18  2  0  0  0
 16 30  1  0  0  0
 17 18  1  0  0  0
 17 31  1  0  0  0
 17 37  2  0  0  0
 18 29  1  0  0  0
 30 32  1  0  0  0
 30 36  2  0  0  0
 33 45  1  0  0  0
 34 35  1  0  0  0
 34 38  1  0  0  0
 34 41  1  0  0  0
 34 42  1  0  0  0
 35 36  1  0  0  0
 35 43  1  0  0  0
 35 44  1  0  0  0
 36 37  1  0  0  0
 37 38  1  0  0  0
 38 39  1  0  0  0
 38 40  1  0  0  0
M  CHG  1   3  -1
M  END
> <s_m_entry_id>
378

> <s_m_entry_name>
MCL1_46.1

> <r_m_Molecular_weight>
334.39845

> <s_m_Source_Path>
C:\Users\yujiethinkpad\Desktop\05A\MCL1\original

> <s_m_Source_File>
MCL1_46.sdf

> <r_user_dG.exp>
-7.60113429727595

> <s_fepmapper_entryid>
5

> <i_fepmapper_bias>
0

> <i_fepmapper_affinity>
1

> <r_fepmapper_exp_dG>
-7.60113429728

> <i_fepmapper_unit>
1

> <i_m_Source_File_Index>
1

> <s_m_job_name>
glide-dock_SP_redock_5965

> <s_i_glide_gridfile>
glide-grid_MCL1

> <i_i_glide_lignum>
30

> <i_i_glide_rotatable_bonds>
6

> <r_i_docking_score>
-8.50604260712521

> <r_i_glide_ligand_efficiency>
-0.340241704285009

> <r_i_glide_ligand_efficiency_sa>
-0.994872777541684

> <r_i_glide_ligand_efficiency_ln>
-2.016187003416

> <r_i_glide_gscore>
-8.50604260712521

> <r_i_glide_lipo>
-5.08696655795218

> <r_i_glide_hbond>
-0.2

> <r_i_glide_metal>
0

> <r_i_glide_rewards>
-1.9244658439651

> <r_i_glide_evdw>
-29.5885696411133

> <r_i_glide_ecoul>
-3.13452863693237

> <r_i_glide_erotb>
0.674678162084637

> <r_i_glide_esite>
-0.019680589697056

> <r_i_glide_emodel>
-44.6850297602263

> <r_i_glide_energy>
-32.7230982780457

> <r_i_glide_einternal>
3.77939987182617

> <i_i_glide_confnum>
60

> <i_i_glide_posenum>
25

> <r_i_glide_eff_state_penalty>
0

> <r_glide_shape_similarity>
0.906532049179077

> <s_m_subgroup_title>
glide-dock_SP_redock_5965_lib1

> <s_m_subgroupid>
glide-dock_SP_redock_5965_lib1

> <b_m_subgroup_collapsed>
0

$$$$
