48
                    3D
 Schrodinger Suite 2021-2.
 42 45  0  0  1  0            999 V2000
    3.9832  -49.5529    6.5371 O   0  0  0  0  0  0
    3.0618  -48.7042    6.5562 C   0  0  0  0  0  0
    3.2598  -47.4951    6.8303 O   0  5  0  0  0  0
    1.6726  -49.1330    6.2897 C   0  0  0  0  0  0
   -0.0930  -50.6075    6.3511 C   0  0  0  0  0  0
   -1.0000  -51.6799    6.5328 C   0  0  0  0  0  0
   -2.3857  -51.4608    6.3455 C   0  0  0  0  0  0
   -2.8558  -50.1883    5.9516 C   0  0  0  0  0  0
   -1.9441  -49.1332    5.7406 C   0  0  0  0  0  0
   -0.5522  -49.3105    5.9532 C   0  0  0  0  0  0
    0.5727  -48.4162    5.8804 C   0  0  0  0  0  0
    0.5073  -46.9712    5.4575 C   0  0  0  0  0  0
    0.3019  -46.0205    6.6508 C   0  0  0  0  0  0
   -1.0195  -46.2062    7.4395 C   0  0  0  0  0  0
   -2.2229  -45.7553    6.8203 O   0  0  0  0  0  0
   -3.3813  -45.7933    7.5902 C   0  0  0  0  0  0
   -5.7942  -45.7594    9.1423 C   0  0  0  0  0  0
   -4.7244  -46.5990    9.5079 C   0  0  0  0  0  0
   -3.5299  -46.6060    8.7525 C   0  0  0  0  0  0
   -0.6376  -52.6516    6.8330 H   0  0  0  0  0  0
   -3.0857  -52.2701    6.4962 H   0  0  0  0  0  0
   -3.9133  -50.0230    5.7996 H   0  0  0  0  0  0
   -2.3161  -48.1646    5.4398 H   0  0  0  0  0  0
    1.4169  -46.6949    4.9223 H   0  0  0  0  0  0
   -0.3080  -46.8364    4.7510 H   0  0  0  0  0  0
    1.1161  -46.2064    7.3509 H   0  0  0  0  0  0
    0.4600  -45.0042    6.3217 H   0  0  0  0  0  0
   -1.1419  -47.2740    7.5510 H   0  0  0  0  0  0
   -0.9151  -45.7538    8.4267 H   0  0  0  0  0  0
   -2.7404  -47.2613    9.0833 H   0  0  0  0  0  0
   -4.8153  -47.2584   10.3521 H   0  0  0  0  0  0
   -6.7100  -45.7574    9.7145 H   0  0  0  0  0  0
    1.2887  -50.4653    6.4900 N   0  0  0  0  0  0
    1.9614  -51.1705    6.7749 H   0  0  0  0  0  0
   -6.0531  -43.8060    6.0308 C   0  0  0  0  0  0
   -6.5922  -44.2110    7.2586 N   0  0  0  0  0  0
   -5.6846  -45.0060    7.9536 C   0  0  0  0  0  0
   -4.4908  -45.0063    7.1508 C   0  0  0  0  0  0
   -4.7400  -44.2060    5.9616 C   0  0  0  0  0  0
   -7.5451  -44.0147    7.5493 H   0  0  0  0  0  0
   -4.0428  -44.0321    5.1542 H   0  0  0  0  0  0
   -6.6339  -43.2220    5.3309 H   0  0  0  0  0  0
  1  2  2  0  0  0
  2  3  1  0  0  0
  2  4  1  0  0  0
  4 11  2  0  0  0
  4 33  1  0  0  0
  5  6  1  0  0  0
  5 10  2  0  0  0
  5 33  1  0  0  0
  6  7  2  0  0  0
  6 20  1  0  0  0
  7  8  1  0  0  0
  7 21  1  0  0  0
  8  9  2  0  0  0
  8 22  1  0  0  0
  9 10  1  0  0  0
  9 23  1  0  0  0
 10 11  1  0  0  0
 11 12  1  0  0  0
 12 24  1  0  0  0
 12 25  1  0  0  0
 12 13  1  0  0  0
 13 14  1  0  0  0
 13 26  1  0  0  0
 13 27  1  0  0  0
 14 15  1  0  0  0
 14 28  1  0  0  0
 14 29  1  0  0  0
 15 16  1  0  0  0
 16 19  2  0  0  0
 16 38  1  0  0  0
 17 18  2  0  0  0
 17 32  1  0  0  0
 17 37  1  0  0  0
 18 19  1  0  0  0
 18 31  1  0  0  0
 19 30  1  0  0  0
 33 34  1  0  0  0
 35 36  1  0  0  0
 35 39  2  0  0  0
 35 42  1  0  0  0
 36 37  1  0  0  0
 36 40  1  0  0  0
 37 38  2  0  0  0
 38 39  1  0  0  0
 39 41  1  0  0  0
M  CHG  1   3  -1
M  END
> <s_m_entry_id>
393

> <s_m_entry_name>
MCL1_48.1

> <r_m_Molecular_weight>
333.37009

> <s_m_Source_Path>
C:\Users\yujiethinkpad\Desktop\05A\MCL1\original

> <s_m_Source_File>
MCL1_48.sdf

> <r_user_dG.exp>
-6.6626190630157

> <s_fepmapper_entryid>
3

> <i_fepmapper_bias>
0

> <i_fepmapper_affinity>
1

> <r_fepmapper_exp_dG>
-6.66261906302

> <i_fepmapper_unit>
1

> <i_m_Source_File_Index>
1

> <s_m_job_name>
glide-dock_SP_redock_5965

> <s_i_glide_gridfile>
glide-grid_MCL1

> <i_i_glide_lignum>
32

> <i_i_glide_rotatable_bonds>
6

> <r_i_docking_score>
-7.81205798763111

> <r_i_glide_ligand_efficiency>
-0.312482319505244

> <r_i_glide_ligand_efficiency_sa>
-0.913703844130868

> <r_i_glide_ligand_efficiency_ln>
-1.85169185155507

> <r_i_glide_gscore>
-7.81205798763111

> <r_i_glide_lipo>
-4.80909986638803

> <r_i_glide_hbond>
-0.2

> <r_i_glide_metal>
0

> <r_i_glide_rewards>
-1.5695111969697

> <r_i_glide_evdw>
-29.7369155883789

> <r_i_glide_ecoul>
-2.70910859107971

> <r_i_glide_erotb>
0.678363432142764

> <r_i_glide_esite>
-0.0185982883352498

> <r_i_glide_emodel>
-45.5225621840265

> <r_i_glide_energy>
-32.4460241794586

> <r_i_glide_einternal>
3.28398203849792

> <i_i_glide_confnum>
66

> <i_i_glide_posenum>
308

> <r_i_glide_eff_state_penalty>
0

> <r_glide_shape_similarity>
0.909745872020721

> <s_m_subgroup_title>
glide-dock_SP_redock_5965_lib1

> <s_m_subgroupid>
glide-dock_SP_redock_5965_lib1

> <b_m_subgroup_collapsed>
0

$$$$
