51
                    3D
 Schrodinger Suite 2021-2.
 44 47  0  0  1  0            999 V2000
    3.2108  -47.4072    6.7517 O   0  0  0  0  0  0
    3.0883  -48.6328    6.5180 C   0  0  0  0  0  0
    4.0811  -49.4045    6.4860 O   0  5  0  0  0  0
    1.7359  -49.2149    6.3407 C   0  0  0  0  0  0
    0.2708  -50.9653    6.5208 C   0  0  0  0  0  0
   -0.3626  -52.2052    6.7590 C   0  0  0  0  0  0
   -1.7629  -52.3120    6.6235 C   0  0  0  0  0  0
   -2.5125  -51.1830    6.2406 C   0  0  0  0  0  0
   -1.8647  -49.9519    5.9894 C   0  0  0  0  0  0
   -0.4547  -49.8010    6.1224 C   0  0  0  0  0  0
    0.5066  -48.7256    5.9518 C   0  0  0  0  0  0
    0.2467  -47.3610    5.3933 C   0  0  0  0  0  0
    0.0871  -46.2783    6.4545 C   0  0  0  0  0  0
   -1.1564  -46.3478    7.3623 C   0  0  0  0  0  0
   -2.3253  -45.7338    6.8091 O   0  0  0  0  0  0
   -3.4851  -45.7686    7.5709 C   0  0  0  0  0  0
   -5.8697  -45.7662    9.1513 C   0  0  0  0  0  0
   -4.7816  -46.5786    9.5117 C   0  0  0  0  0  0
   -3.6013  -46.5686    8.7466 C   0  0  0  0  0  0
    0.2204  -53.0642    7.0555 H   0  0  0  0  0  0
   -2.2577  -53.2539    6.8094 H   0  0  0  0  0  0
   -3.5869  -51.2550    6.1423 H   0  0  0  0  0  0
   -2.8332  -48.6123    5.5504 Cl  0  0  0  0  0  0
    1.0808  -47.0856    4.7481 H   0  0  0  0  0  0
   -0.6199  -47.3645    4.7361 H   0  0  0  0  0  0
    0.9889  -46.2207    7.0661 H   0  0  0  0  0  0
    0.0640  -45.4006    5.8598 H   0  0  0  0  0  0
   -1.3612  -47.3991    7.5509 H   0  0  0  0  0  0
   -0.9232  -45.8614    8.3105 H   0  0  0  0  0  0
   -2.7985  -47.1983    9.0938 H   0  0  0  0  0  0
   -5.8112  -45.0148    7.9549 C   0  0  0  0  0  0
   -4.6225  -45.0061    7.1518 C   0  0  0  0  0  0
   -4.6121  -44.2069    5.9564 C   0  0  0  0  0  0
   -5.8169  -43.6546    5.4751 C   0  0  0  0  0  0
   -7.0186  -43.8066    6.2119 C   0  0  0  0  0  0
   -7.0041  -44.4106    7.4913 C   0  0  0  0  0  0
   -3.7310  -44.1655    5.3334 H   0  0  0  0  0  0
   -5.8225  -43.1515    4.5193 H   0  0  0  0  0  0
   -7.9380  -43.3972    5.8209 H   0  0  0  0  0  0
   -7.9208  -44.4821    8.0632 H   0  0  0  0  0  0
   -4.8502  -47.2440   10.3514 H   0  0  0  0  0  0
   -6.7759  -45.8049    9.7399 H   0  0  0  0  0  0
    1.5937  -50.5702    6.6048 N   0  0  0  0  0  0
    2.3948  -51.1339    6.8649 H   0  0  0  0  0  0
  1  2  2  0  0  0
  2  3  1  0  0  0
  2  4  1  0  0  0
  4 11  2  0  0  0
  4 43  1  0  0  0
  5  6  1  0  0  0
  5 10  2  0  0  0
  5 43  1  0  0  0
  6  7  2  0  0  0
  6 20  1  0  0  0
  7  8  1  0  0  0
  7 21  1  0  0  0
  8  9  2  0  0  0
  8 22  1  0  0  0
  9 10  1  0  0  0
  9 23  1  0  0  0
 10 11  1  0  0  0
 11 12  1  0  0  0
 12 24  1  0  0  0
 12 25  1  0  0  0
 12 13  1  0  0  0
 13 14  1  0  0  0
 13 26  1  0  0  0
 13 27  1  0  0  0
 14 15  1  0  0  0
 14 28  1  0  0  0
 14 29  1  0  0  0
 15 16  1  0  0  0
 16 19  2  0  0  0
 16 32  1  0  0  0
 17 18  2  0  0  0
 17 31  1  0  0  0
 17 42  1  0  0  0
 18 19  1  0  0  0
 18 41  1  0  0  0
 19 30  1  0  0  0
 31 32  2  0  0  0
 31 36  1  0  0  0
 32 33  1  0  0  0
 33 34  2  0  0  0
 33 37  1  0  0  0
 34 35  1  0  0  0
 34 38  1  0  0  0
 35 36  2  0  0  0
 35 39  1  0  0  0
 36 40  1  0  0  0
 43 44  1  0  0  0
M  CHG  1   3  -1
M  END
> <s_m_entry_id>
372

> <s_m_entry_name>
MCL1_51.1

> <r_m_Molecular_weight>
378.83869

> <s_m_Source_Path>
C:\Users\yujiethinkpad\Desktop\05A\MCL1\original

> <s_m_Source_File>
MCL1_51.sdf

> <r_user_dG.exp>
-8.44846494324944

> <s_fepmapper_entryid>
12

> <i_fepmapper_bias>
0

> <i_fepmapper_affinity>
1

> <r_fepmapper_exp_dG>
-8.44846494325

> <i_fepmapper_unit>
1

> <i_m_Source_File_Index>
1

> <s_m_job_name>
glide-dock_SP_redock_5965

> <s_i_glide_gridfile>
glide-grid_MCL1

> <i_i_glide_lignum>
35

> <i_i_glide_rotatable_bonds>
6

> <r_i_docking_score>
-8.86351398473554

> <r_i_glide_ligand_efficiency>
-0.328278295730946

> <r_i_glide_ligand_efficiency_sa>
-0.984834886110886

> <r_i_glide_ligand_efficiency_ln>
-2.06327992919799

> <r_i_glide_gscore>
-8.86351398473554

> <r_i_glide_lipo>
-5.48015970457846

> <r_i_glide_hbond>
-0.2

> <r_i_glide_metal>
0

> <r_i_glide_rewards>
-1.72617286363636

> <r_i_glide_evdw>
-32.755500793457

> <r_i_glide_ecoul>
-2.25312733650208

> <r_i_glide_erotb>
0.540262106106263

> <r_i_glide_esite>
-0.0216993824788128

> <r_i_glide_emodel>
-41.6627024859497

> <r_i_glide_energy>
-35.0086281299591

> <r_i_glide_einternal>
4.97737789154053

> <i_i_glide_confnum>
73

> <i_i_glide_posenum>
11

> <r_i_glide_eff_state_penalty>
0

> <r_glide_shape_similarity>
0.841161847114563

> <s_m_subgroup_title>
glide-dock_SP_redock_5965_lib1

> <s_m_subgroupid>
glide-dock_SP_redock_5965_lib1

> <b_m_subgroup_collapsed>
0

$$$$
