57
                    3D
 Schrodinger Suite 2021-2.
 47 50  0  0  1  0            999 V2000
    3.4931  -48.6057    6.7510 O   0  0  0  0  0  0
    2.4630  -47.9708    6.4141 C   0  0  0  0  0  0
    2.4981  -46.7255    6.3093 O   0  5  0  0  0  0
    1.1534  -48.6537    6.1797 C   0  0  0  0  0  0
   -0.3209  -50.4008    6.2273 C   0  0  0  0  0  0
   -1.0031  -51.6285    6.4105 C   0  0  0  0  0  0
   -2.4100  -51.6651    6.3149 C   0  0  0  0  0  0
   -3.1278  -50.4863    6.0233 C   0  0  0  0  0  0
   -2.4441  -49.2654    5.8498 C   0  0  0  0  0  0
   -1.0313  -49.1893    5.9618 C   0  0  0  0  0  0
   -0.0984  -48.0927    5.9564 C   0  0  0  0  0  0
   -0.5350  -46.6294    5.9637 C   0  0  0  0  0  0
   -0.7726  -46.1615    7.4279 C   0  0  0  0  0  0
   -1.9657  -45.3176    7.8443 C   0  0  0  0  0  0
   -3.1005  -46.0282    7.3862 O   0  0  0  0  0  0
   -4.2923  -45.6456    7.9286 C   0  0  0  0  0  0
   -6.8679  -45.0444    8.9011 C   0  0  0  0  0  0
   -5.9998  -45.8606    9.6651 C   0  0  0  0  0  0
   -4.7295  -46.2038    9.1536 C   0  0  0  0  0  0
   -0.4583  -52.5339    6.6289 H   0  0  0  0  0  0
   -2.9381  -52.5977    6.4549 H   0  0  0  0  0  0
   -4.2053  -50.5135    5.9434 H   0  0  0  0  0  0
   -3.0116  -48.3655    5.6622 H   0  0  0  0  0  0
    0.1855  -45.9836    5.4638 H   0  0  0  0  0  0
   -1.4682  -46.5582    5.4078 H   0  0  0  0  0  0
   -1.1402  -47.0276    7.9500 H   0  0  0  0  0  0
    0.1444  -45.8297    7.9046 H   0  0  0  0  0  0
   -1.9402  -45.3119    8.9321 H   0  0  0  0  0  0
   -1.9405  -44.2745    7.5499 H   0  0  0  0  0  0
   -4.0848  -46.8721    9.7053 H   0  0  0  0  0  0
   -6.4659  -44.5730    7.6295 C   0  0  0  0  0  0
   -5.1401  -44.7931    7.1740 C   0  0  0  0  0  0
   -4.6969  -44.2060    5.9511 C   0  0  0  0  0  0
   -5.6109  -43.5443    5.1106 C   0  0  0  0  0  0
   -6.9631  -43.4364    5.5045 C   0  0  0  0  0  0
   -7.3770  -43.9106    6.7727 C   0  0  0  0  0  0
   -3.6828  -44.3488    5.6090 H   0  0  0  0  0  0
   -5.2868  -43.1652    4.1517 H   0  0  0  0  0  0
   -7.6808  -42.9941    4.8343 H   0  0  0  0  0  0
   -8.3910  -43.7697    7.0777 H   0  0  0  0  0  0
   -6.3390  -46.2583   10.6099 H   0  0  0  0  0  0
   -7.8644  -44.8393    9.2641 H   0  0  0  0  0  0
    2.0941  -51.0377    6.4743 C   0  0  0  0  0  0
    2.8858  -50.8795    5.7412 H   0  0  0  0  0  0
    2.5028  -50.9384    7.4801 H   0  0  0  0  0  0
    1.7249  -52.0538    6.3458 H   0  0  0  0  0  0
    1.0279  -50.0605    6.2748 N   0  0  0  0  0  0
  1  2  2  0  0  0
  2  3  1  0  0  0
  2  4  1  0  0  0
  4 11  2  0  0  0
  4 47  1  0  0  0
  5  6  1  0  0  0
  5 10  2  0  0  0
  5 47  1  0  0  0
  6  7  2  0  0  0
  6 20  1  0  0  0
  7  8  1  0  0  0
  7 21  1  0  0  0
  8  9  2  0  0  0
  8 22  1  0  0  0
  9 10  1  0  0  0
  9 23  1  0  0  0
 10 11  1  0  0  0
 11 12  1  0  0  0
 12 24  1  0  0  0
 12 25  1  0  0  0
 12 13  1  0  0  0
 13 14  1  0  0  0
 13 26  1  0  0  0
 13 27  1  0  0  0
 14 15  1  0  0  0
 14 28  1  0  0  0
 14 29  1  0  0  0
 15 16  1  0  0  0
 16 19  2  0  0  0
 16 32  1  0  0  0
 17 18  2  0  0  0
 17 31  1  0  0  0
 17 42  1  0  0  0
 18 19  1  0  0  0
 18 41  1  0  0  0
 19 30  1  0  0  0
 31 32  2  0  0  0
 31 36  1  0  0  0
 32 33  1  0  0  0
 33 34  2  0  0  0
 33 37  1  0  0  0
 34 35  1  0  0  0
 34 38  1  0  0  0
 35 36  2  0  0  0
 35 39  1  0  0  0
 36 40  1  0  0  0
 43 44  1  0  0  0
 43 45  1  0  0  0
 43 46  1  0  0  0
 43 47  1  0  0  0
M  CHG  1   3  -1
M  END
> <s_m_entry_id>
363

> <s_m_entry_name>
MCL1_57.1

> <r_m_Molecular_weight>
358.42075

> <s_m_Source_Path>
C:\Users\yujiethinkpad\Desktop\05A\MCL1\original

> <s_m_Source_File>
MCL1_57.sdf

> <r_user_dG.exp>
-9.03887132268158

> <s_fepmapper_entryid>
34

> <i_fepmapper_bias>
0

> <i_fepmapper_affinity>
1

> <r_fepmapper_exp_dG>
-9.03887132268

> <i_fepmapper_unit>
1

> <i_m_Source_File_Index>
1

> <s_m_job_name>
glide-dock_SP_redock_5965

> <s_i_glide_gridfile>
glide-grid_MCL1

> <i_i_glide_lignum>
40

> <i_i_glide_rotatable_bonds>
6

> <r_i_docking_score>
-9.43273952234547

> <r_i_glide_ligand_efficiency>
-0.349360723049832

> <r_i_glide_ligand_efficiency_sa>
-1.04808216799806

> <r_i_glide_ligand_efficiency_ln>
-2.19578624993717

> <r_i_glide_gscore>
-9.43273952234547

> <r_i_glide_lipo>
-5.57593652434488

> <r_i_glide_hbond>
-0.186895526383573

> <r_i_glide_metal>
0

> <r_i_glide_rewards>
-2.34469633421843

> <r_i_glide_evdw>
-32.463996887207

> <r_i_glide_ecoul>
-1.98990917205811

> <r_i_glide_erotb>
0.596475082770476

> <r_i_glide_esite>
0

> <r_i_glide_emodel>
-40.5272178008355

> <r_i_glide_energy>
-34.4539060592651

> <r_i_glide_einternal>
5.83902597427368

> <i_i_glide_confnum>
10

> <i_i_glide_posenum>
262

> <r_i_glide_eff_state_penalty>
0

> <r_glide_shape_similarity>
0.82066011428833

> <s_m_subgroup_title>
glide-dock_SP_redock_5965_lib1

> <s_m_subgroupid>
glide-dock_SP_redock_5965_lib1

> <b_m_subgroup_collapsed>
0

$$$$
