68
                    3D
 Schrodinger Suite 2021-2.
 43 46  0  0  1  0            999 V2000
    3.8598  -49.0286    6.7485 O   0  0  0  0  0  0
    2.8978  -48.2413    6.6135 C   0  0  0  0  0  0
    3.0483  -47.0063    6.7503 O   0  5  0  0  0  0
    1.5555  -48.7585    6.3134 C   0  0  0  0  0  0
    0.1054  -50.4200    6.2467 C   0  0  0  0  0  0
   -0.5220  -51.6755    6.3461 C   0  0  0  0  0  0
   -1.9152  -51.7322    6.2344 C   0  0  0  0  0  0
   -2.6444  -50.5408    6.0162 C   0  0  0  0  0  0
   -2.0119  -49.2920    5.8986 C   0  0  0  0  0  0
   -0.6134  -49.2081    6.0377 C   0  0  0  0  0  0
    0.3295  -48.1259    6.0952 C   0  0  0  0  0  0
   -0.0527  -46.6347    6.0656 C   0  0  0  0  0  0
   -0.4561  -45.9980    7.4497 C   0  0  0  0  0  0
   -1.8318  -46.3461    8.0488 C   0  0  0  0  0  0
   -2.8911  -45.8203    7.2685 O   0  0  0  0  0  0
   -4.1269  -45.6338    7.8531 C   0  0  0  0  0  0
   -6.7323  -45.1494    8.9110 C   0  0  0  0  0  0
   -5.8106  -45.9498    9.6206 C   0  0  0  0  0  0
   -4.5453  -46.2290    9.0771 C   0  0  0  0  0  0
    0.0723  -52.5594    6.5276 H   0  0  0  0  0  0
   -2.4361  -52.6748    6.3257 H   0  0  0  0  0  0
   -4.3404  -50.5961    5.9512 Cl  0  0  0  0  0  0
   -2.5910  -48.3915    5.7574 H   0  0  0  0  0  0
    0.7650  -46.0605    5.6352 H   0  0  0  0  0  0
   -0.8966  -46.5468    5.3843 H   0  0  0  0  0  0
    0.3523  -46.2002    8.1419 H   0  0  0  0  0  0
   -0.4572  -44.9284    7.5224 H   0  0  0  0  0  0
   -1.9631  -47.4081    8.1543 H   0  0  0  0  0  0
   -1.8774  -45.8429    9.0117 H   0  0  0  0  0  0
   -3.8672  -46.8633    9.6319 H   0  0  0  0  0  0
   -6.3752  -44.6242    7.6435 C   0  0  0  0  0  0
   -5.0533  -44.8228    7.1512 C   0  0  0  0  0  0
   -4.6492  -44.2042    5.9449 C   0  0  0  0  0  0
   -5.5886  -43.5292    5.1387 C   0  0  0  0  0  0
   -6.9472  -43.4549    5.5556 C   0  0  0  0  0  0
   -7.3227  -43.9661    6.8236 C   0  0  0  0  0  0
   -3.6406  -44.2931    5.5847 H   0  0  0  0  0  0
   -5.2896  -43.1172    4.1862 H   0  0  0  0  0  0
   -7.6853  -43.0017    4.9079 H   0  0  0  0  0  0
   -8.3395  -43.8524    7.1440 H   0  0  0  0  0  0
   -6.1027  -46.3751   10.5655 H   0  0  0  0  0  0
   -7.7270  -45.0042    9.3011 H   0  0  0  0  0  0
    1.4333  -50.1287    6.3579 O   0  0  0  0  0  0
  1  2  2  0  0  0
  2  3  1  0  0  0
  2  4  1  0  0  0
  4 11  2  0  0  0
  4 43  1  0  0  0
  5  6  1  0  0  0
  5 10  2  0  0  0
  5 43  1  0  0  0
  6  7  2  0  0  0
  6 20  1  0  0  0
  7  8  1  0  0  0
  7 21  1  0  0  0
  8  9  2  0  0  0
  8 22  1  0  0  0
  9 10  1  0  0  0
  9 23  1  0  0  0
 10 11  1  0  0  0
 11 12  1  0  0  0
 12 24  1  0  0  0
 12 25  1  0  0  0
 12 13  1  0  0  0
 13 14  1  0  0  0
 13 26  1  0  0  0
 13 27  1  0  0  0
 14 15  1  0  0  0
 14 28  1  0  0  0
 14 29  1  0  0  0
 15 16  1  0  0  0
 16 19  2  0  0  0
 16 32  1  0  0  0
 17 18  2  0  0  0
 17 31  1  0  0  0
 17 42  1  0  0  0
 18 19  1  0  0  0
 18 41  1  0  0  0
 19 30  1  0  0  0
 31 32  2  0  0  0
 31 36  1  0  0  0
 32 33  1  0  0  0
 33 34  2  0  0  0
 33 37  1  0  0  0
 34 35  1  0  0  0
 34 38  1  0  0  0
 35 36  2  0  0  0
 35 39  1  0  0  0
 36 40  1  0  0  0
M  CHG  1   3  -1
M  END
> <s_m_entry_id>
380

> <s_m_entry_name>
MCL1_68.1

> <r_m_Molecular_weight>
379.82342

> <s_m_Source_Path>
C:\Users\yujiethinkpad\Desktop\05A\MCL1\original

> <s_m_Source_File>
MCL1_68.sdf

> <r_user_dG.exp>
-7.6896119149271

> <s_fepmapper_entryid>
9

> <i_fepmapper_bias>
0

> <i_fepmapper_affinity>
1

> <r_fepmapper_exp_dG>
-7.68961191493

> <i_fepmapper_unit>
1

> <i_m_Source_File_Index>
1

> <s_m_job_name>
glide-dock_SP_redock_5965

> <s_i_glide_gridfile>
glide-grid_MCL1

> <i_i_glide_lignum>
8

> <i_i_glide_rotatable_bonds>
6

> <r_i_docking_score>
-8.45086983239145

> <r_i_glide_ligand_efficiency>
-0.312995178977461

> <r_i_glide_ligand_efficiency_sa>
-0.938985535900803

> <r_i_glide_ligand_efficiency_ln>
-1.96722317350282

> <r_i_glide_gscore>
-8.45086983239145

> <r_i_glide_lipo>
-5.49940022663864

> <r_i_glide_hbond>
-0.295235447136653

> <r_i_glide_metal>
0

> <r_i_glide_rewards>
-1.71945859090909

> <r_i_glide_evdw>
-24.0187301635742

> <r_i_glide_ecoul>
-1.74467313289642

> <r_i_glide_erotb>
0.53775539038866

> <r_i_glide_esite>
-0.011893479982559

> <r_i_glide_emodel>
-30.9128979198374

> <r_i_glide_energy>
-25.7634032964706

> <r_i_glide_einternal>
2.68409442901611

> <i_i_glide_confnum>
20

> <i_i_glide_posenum>
338

> <r_i_glide_eff_state_penalty>
0

> <r_glide_shape_similarity>
0.82910168170929

> <s_m_subgroup_title>
glide-dock_SP_redock_5965_lib1

> <s_m_subgroupid>
glide-dock_SP_redock_5965_lib1

> <b_m_subgroup_collapsed>
0

$$$$
