p38a_3fly
                    3D
 Schrodinger Suite 2021-2.
 41 43  0  0  1  0            999 V2000
   35.1923   39.2868   21.9457 C   0  0  0  0  0  0
   34.1632   37.1810   22.4937 C   0  0  0  0  0  0
   34.5438   39.8762   22.9655 N   0  0  0  0  0  0
   35.0563   37.9124   21.6857 C   0  0  0  0  0  0
   35.8167   37.2065   20.6701 C   0  0  0  0  0  0
   35.6678   35.8778   20.5037 C   0  0  0  0  0  0
   34.7176   35.0959   21.3027 C   0  0  0  0  0  0
   33.7779   39.0930   23.7181 C   0  0  0  0  0  0
   32.0057   39.3195   25.5207 C   0  0  0  0  0  0
   30.7964   39.2647   24.5699 C   0  0  0  0  0  0
   32.1588   38.0425   26.3639 C   0  0  0  0  0  0
   36.6359   35.6173   18.3442 C   0  0  0  0  0  0
   35.5809   36.1701   17.5819 C   0  0  0  0  0  0
   35.8148   36.5891   16.2588 C   0  0  0  0  0  0
   37.0970   36.4498   15.6968 C   0  0  0  0  0  0
   38.1374   35.8655   16.4401 C   0  0  0  0  0  0
   37.9052   35.4420   17.7578 C   0  0  0  0  0  0
   37.3621   36.9406   14.4660 F   0  0  0  0  0  0
   38.9086   34.8645   18.4601 F   0  0  0  0  0  0
   36.4635   35.1858   19.6340 O   0  0  0  0  0  0
   34.6044   33.8784   21.1484 O   0  0  0  0  0  0
   33.9731   35.7885   22.2151 N   0  0  0  0  0  0
   32.9333   35.0919   22.9858 C   0  0  0  0  0  0
   33.5346   37.7995   23.5169 N   0  0  0  0  0  0
   33.2411   39.6971   24.8346 N   0  0  0  0  0  0
   35.8516   39.9066   21.3568 H   0  0  0  0  0  0
   36.5427   37.7654   20.0972 H   0  0  0  0  0  0
   31.8089   40.1314   26.2223 H   0  0  0  0  0  0
   29.8717   39.1071   25.1256 H   0  0  0  0  0  0
   30.8833   38.4553   23.8452 H   0  0  0  0  0  0
   30.6815   40.1953   24.0136 H   0  0  0  0  0  0
   31.2694   37.8716   26.9705 H   0  0  0  0  0  0
   32.3041   37.1560   25.7470 H   0  0  0  0  0  0
   33.0084   38.1209   27.0429 H   0  0  0  0  0  0
   34.5943   36.2804   18.0074 H   0  0  0  0  0  0
   35.0174   37.0275   15.6745 H   0  0  0  0  0  0
   39.1204   35.7632   16.0054 H   0  0  0  0  0  0
   32.6394   34.1282   22.5672 H   0  0  0  0  0  0
   33.2801   34.9253   24.0062 H   0  0  0  0  0  0
   32.0233   35.6910   23.0352 H   0  0  0  0  0  0
   33.5376   40.6539   24.9637 H   0  0  0  0  0  0
  1  3  2  0  0  0
  1  4  1  0  0  0
  1 26  1  0  0  0
  2  4  2  0  0  0
  2 22  1  0  0  0
  2 24  1  0  0  0
  3  8  1  0  0  0
  4  5  1  0  0  0
  5  6  2  0  0  0
  5 27  1  0  0  0
  6  7  1  0  0  0
  6 20  1  0  0  0
  7 21  2  0  0  0
  7 22  1  0  0  0
  8 24  2  0  0  0
  8 25  1  0  0  0
  9 10  1  0  0  0
  9 11  1  0  0  0
  9 25  1  0  0  0
  9 28  1  0  0  0
 10 29  1  0  0  0
 10 30  1  0  0  0
 10 31  1  0  0  0
 11 32  1  0  0  0
 11 33  1  0  0  0
 11 34  1  0  0  0
 12 13  2  0  0  0
 12 17  1  0  0  0
 12 20  1  0  0  0
 13 14  1  0  0  0
 13 35  1  0  0  0
 14 15  2  0  0  0
 14 36  1  0  0  0
 15 16  1  0  0  0
 15 18  1  0  0  0
 16 17  2  0  0  0
 16 37  1  0  0  0
 17 19  1  0  0  0
 22 23  1  0  0  0
 23 38  1  0  0  0
 23 39  1  0  0  0
 23 40  1  0  0  0
 25 41  1  0  0  0
M  END
> <i_m_stars>
0

> <s_m_entry_id>
327

> <s_m_entry_name>
Structure4

> <s_m_Source_Path>
C:\Users\yujiethinkpad\Desktop\05A\p38\glide-dock_SP_co

> <s_m_Source_File>
glide-dock_SP_co_pv.maegz

> <i_m_Source_File_Index>
68

> <s_pdb_PDB_TITLE>
P38 KINASE CRYSTAL STRUCTURE IN COMPLEX WITH 6-(2,4-DIFLUORO-PHENOXY)- 2-ISOPROPYLAMINO-8-METHYL-8H-PYRIDO[2,3-D]PYRIMIDIN-7-ONE

> <s_pdb_PDB_ID>
3FLY

> <r_pdb_PDB_CRYST1_a>
45.465

> <r_pdb_PDB_CRYST1_b>
85.791

> <r_pdb_PDB_CRYST1_c>
124.911

> <r_pdb_PDB_CRYST1_alpha>
90

> <r_pdb_PDB_CRYST1_beta>
90

> <r_pdb_PDB_CRYST1_gamma>
90

> <s_pdb_PDB_CRYST1_Space_Group>
P 21 21 21

> <i_pdb_PDB_CRYST1_z>
4

> <s_pdb_PDB_CLASSIFICATION>
SIGNALING PROTEIN, TRANSFERASE

> <s_pdb_PDB_DEPOSITION_DATE>
19-DEC-08

> <s_pdb_PDB_format_version>
3.30

> <r_pdb_PDB_R>
0.22

> <r_pdb_PDB_Rfree>
0.245

> <r_pdb_PDB_RESOLUTION>
1.8

> <s_pdb_PDB_EXPDTA>
X-RAY DIFFRACTION

> <r_pdb_PDB_EXPDTA_TEMPERATURE>
100

> <r_pdb_PDB_EXPDTA_PH>
7.6

> <s_pdb_PDB_REMARK_350_Biomolecule_1_Transform_1_Chains>
A

> <s_pdb_PDB_REMARK_350_Biomolecule_1_Transform_1_Matrix_1>
1.000000 0.000000 0.000000   0.000000;0.000000 1.000000 0.000000   0.000000;0.000000 0.000000 1.000000   0.000000

> <s_ppw_entry_id_backup>
2

> <b_ppw_prepared>
1

> <s_ppw_prepared_with_version>
2021-2

> <b_ppw_assigned_bond_orders>
1

> <b_ppw_added_hydrogens>
1

> <b_ppw_treated_metals>
1

> <b_ppw_created_disulfur>
1

> <s_ppw_het_states>
eJxdkj1zwjAMhv+KzzO0lhryARtT117HXoYcZWqaMKRDj+O/Y0kxr02m10/kPJacqye/d1/x4TbwxoV+4yS+IVaIO8QasUFsEbtHpIBIiLARbAQbwUawEWwEG8HGsDFsDBvDxrAxbKw2yetQbAi8NmYglhNmZYBzIJqigrMtlW7pAHYKaoBaQYOPNgpaVCiQFgnDt0a5ANk5unQOLgC0clV2SyXgJ5Bv0eYIA1pB+1SRnVSL9X4T0PblltM3tH25ayoAJkZNsqQt1m14VLBpKwGRbMNLfHf1Mv34y9vSyzjiKi5usVrR5zIsZ3c5T8O4/FthcD+nYXz9nceDe98e5+nbnea/adk7PriPuN33/e0OpkSypA==

> <i_lp_mmshare_version>
54117

> <s_epik_input>
W0NIM11bQ0hdKFtDSDNdKVtOSF1jKG4xKW5bY0hdYyhjMTIpW2NIXWMoYyg9TyluMltDSDNdKU9jM1tjSF1bY0hdYyhGKVtjSF1jM0Y=

> <s_epik_cmdline>
J2VwaWtfcHl0aG9uJywgJy1waCcsICc3LjAnLCAnLXRuJywgJzgnLCAnLW1hJywgJzUwMCcsICctaW1hZScsICc8aW5maWxlLm1hZT4nLCAnLW9tYWUnLCAnPG91dGZpbGUubWFlPic=

> <r_lp_tautomer_probability>
1

> <r_epik_Ionization_Penalty>
  0.0000

> <r_epik_Ionization_Penalty_Charging>
  0.0000

> <r_epik_Ionization_Penalty_Neutral>
  0.0000

> <r_epik_State_Penalty>
  0.0000

> <r_epik_Charging_Adjusted_Penalty>
1.92618610439983e-07

> <i_epik_Tot_Q>
0

> <i_epik_Tot_abs_Q>
0

> <s_epik_Chemistry_Notes>
This compound has an imine and may undergo hydrolysis.

> <i_f3d_flags>
0

> <s_lp_Force_Field>
S-OPLS

> <r_lp_Energy>
48.256022

> <b_lp_Chiralities_Consistent>
1

> <s_lp_Variant>
co-1

> <s_m_job_name>
align_ligands_8350

> <s_i_glide_gridfile>
glide-grid_p38

> <i_i_glide_lignum>
1

> <i_i_glide_rotatable_bonds>
4

> <r_i_docking_score>
-3.90513401651302

> <r_i_glide_ligand_efficiency>
-0.156205360660521

> <r_i_glide_ligand_efficiency_sa>
-0.45674724488523

> <r_i_glide_ligand_efficiency_ln>
-0.925633789336527

> <r_i_glide_gscore>
-3.90513401651302

> <r_i_glide_lipo>
-1.16371908244259

> <r_i_glide_hbond>
0

> <r_i_glide_metal>
0

> <r_i_glide_rewards>
-1.76757937689248

> <r_i_glide_evdw>
-29.9104709625244

> <r_i_glide_ecoul>
0.974676907062531

> <r_i_glide_erotb>
0.475486454888892

> <r_i_glide_esite>
-0.1

> <r_i_glide_emodel>
63.2517243538623

> <r_i_glide_energy>
-28.9357940554619

> <r_i_glide_einternal>
0.838197410106659

> <i_i_glide_confnum>
2

> <i_i_glide_posenum>
377

> <r_i_glide_eff_state_penalty>
0

> <r_glide_shape_similarity>
0

> <r_m_RMS_In_Place_4>
3.74919054583649

> <r_m_RMSD_4>
0.835049713075225

> <i_phase_Input_Structure_Number>
1

> <i_phase_Structure_Number>
1

> <r_phase_Similarity_to_Reference>
1

> <i_phase_Reference_Structure>
1

> <s_phase_Alignment_Method>


> <s_phase_Alignment_Reason>


> <s_phase_Core_SMARTS>


> <s_m_subgroup_title>
align_ligands_8350

> <s_m_subgroupid>
align_ligands_8350

> <b_m_subgroup_collapsed>
0

$$$$
