3b
                    3D
 Schrodinger Suite 2021-2.
 58 60  0  0  1  0            999 V2000
   18.0823  -13.1298   21.7008 N   0  0  0  0  0  0
   17.8767  -11.8196   21.0501 C   0  0  2  0  0  0
   17.2580  -13.6519   22.6448 C   0  0  0  0  0  0
   16.2653  -13.0412   23.0450 O   0  0  0  0  0  0
   16.4669  -11.6329   20.4483 C   0  0  0  0  0  0
   15.9269  -12.5619   19.8387 O   0  0  0  0  0  0
   18.9354  -11.7346   19.9396 C   0  0  0  0  0  0
   17.5319  -15.0369   23.2668 C   0  0  2  0  0  0
   15.8930  -10.4357   20.6358 N   0  0  0  0  0  0
   20.0114  -12.7319   20.3259 C   0  0  0  0  0  0
   16.2553  -15.7765   23.3492 N   0  3  0  0  0  0
   18.1543  -14.9326   24.6823 C   0  0  0  0  0  0
   14.5589  -10.0570   20.1898 C   0  0  0  0  0  0
   19.3128  -13.7609   21.2118 C   0  0  0  0  0  0
   19.5808  -14.4083   24.7554 C   0  0  0  0  0  0
   13.4796  -10.4078   21.2058 C   0  0  0  0  0  0
   19.8493  -13.1381   25.3043 C   0  0  0  0  0  0
   12.9066  -11.6894   21.1916 C   0  0  0  0  0  0
   21.1669  -12.6477   25.3640 C   0  0  0  0  0  0
   11.9030  -12.0233   22.0971 C   0  0  0  0  0  0
   22.2312  -13.4326   24.8827 C   0  0  0  0  0  0
   11.4541  -11.0824   23.0454 C   0  0  0  0  0  0
   21.9743  -14.7112   24.3527 C   0  0  0  0  0  0
   12.0364   -9.7940   23.0768 C   0  0  0  0  0  0
   20.6552  -15.2017   24.2962 C   0  0  0  0  0  0
   13.0542   -9.4611   22.1615 C   0  0  0  0  0  0
   18.0688  -11.0477   21.7991 H   0  0  0  0  0  0
   19.3365  -10.7256   19.8447 H   0  0  0  0  0  0
   18.5232  -12.0163   18.9687 H   0  0  0  0  0  0
   18.1872  -15.6286   22.6278 H   0  0  0  0  0  0
   16.4233   -9.7323   21.1390 H   0  0  0  0  0  0
   20.7790  -12.2209   20.9083 H   0  0  0  0  0  0
   20.5025  -13.1815   19.4625 H   0  0  0  0  0  0
   15.9076  -15.9161   22.4073 H   0  0  0  0  0  0
   16.3750  -16.6644   23.8125 H   0  0  0  0  0  0
   18.1623  -15.9192   25.1484 H   0  0  0  0  0  0
   17.5178  -14.3168   25.3214 H   0  0  0  0  0  0
   14.5421   -8.9811   20.0209 H   0  0  0  0  0  0
   14.3204  -10.5240   19.2321 H   0  0  0  0  0  0
   19.9752  -14.0700   22.0155 H   0  0  0  0  0  0
   19.0513  -14.6432   20.6254 H   0  0  0  0  0  0
   19.0545  -12.5308   25.6997 H   0  0  0  0  0  0
   13.2892  -12.3715   20.4522 H   0  0  0  0  0  0
   21.3604  -11.6745   25.7897 H   0  0  0  0  0  0
   23.2445  -13.0612   24.9392 H   0  0  0  0  0  0
   22.7922  -15.3223   23.9969 H   0  0  0  0  0  0
   11.7099   -9.0680   23.8072 H   0  0  0  0  0  0
   20.4714  -16.1867   23.8926 H   0  0  0  0  0  0
   13.5023   -8.4791   22.1960 H   0  0  0  0  0  0
   10.6697  -11.3424   23.7384 H   0  0  0  0  0  0
   11.3707  -13.4213   21.9489 C   0  0  0  0  0  0
   11.9300  -14.0366   22.6447 H   0  0  0  0  0  0
   10.3266  -13.3838   22.2448 H   0  0  0  0  0  0
   11.5169  -14.1108   20.5721 C   0  0  0  0  0  0
   11.0544  -15.0963   20.5881 H   0  0  0  0  0  0
   11.0577  -13.5295   19.7743 H   0  0  0  0  0  0
   12.5561  -14.3010   20.3071 H   0  0  0  0  0  0
   15.5771  -15.2002   23.8409 H   0  0  0  0  0  0
  1  2  1  0  0  0
  1 14  1  0  0  0
  1  3  1  0  0  0
  2  5  1  0  0  0
  2  7  1  0  0  0
  2 27  1  0  0  0
  3  8  1  0  0  0
  3  4  2  0  0  0
  5  6  2  0  0  0
  5  9  1  0  0  0
  7 10  1  0  0  0
  7 28  1  0  0  0
  7 29  1  0  0  0
  8 11  1  0  0  0
  8 12  1  0  0  0
  8 30  1  0  0  0
  9 13  1  0  0  0
  9 31  1  0  0  0
 10 14  1  0  0  0
 10 32  1  0  0  0
 10 33  1  0  0  0
 11 34  1  0  0  0
 11 35  1  0  0  0
 11 58  1  0  0  0
 12 15  1  0  0  0
 12 36  1  0  0  0
 12 37  1  0  0  0
 13 16  1  0  0  0
 13 38  1  0  0  0
 13 39  1  0  0  0
 14 40  1  0  0  0
 14 41  1  0  0  0
 15 17  1  0  0  0
 15 25  2  0  0  0
 16 18  1  0  0  0
 16 26  2  0  0  0
 17 19  2  0  0  0
 17 42  1  0  0  0
 18 20  2  0  0  0
 18 43  1  0  0  0
 19 21  1  0  0  0
 19 44  1  0  0  0
 20 22  1  0  0  0
 20 51  1  0  0  0
 21 23  2  0  0  0
 21 45  1  0  0  0
 22 24  2  0  0  0
 22 50  1  0  0  0
 23 25  1  0  0  0
 23 46  1  0  0  0
 24 26  1  0  0  0
 24 47  1  0  0  0
 25 48  1  0  0  0
 26 49  1  0  0  0
 51 52  1  0  0  0
 51 53  1  0  0  0
 51 54  1  0  0  0
 54 55  1  0  0  0
 54 56  1  0  0  0
 54 57  1  0  0  0
M  CHG  1  11   1
M  END
> <s_m_entry_id>
603

> <s_m_entry_name>
Thrombin_3b.1

> <s_m_Source_Path>
C:\Users\yujiethinkpad\Desktop\05A\Thrombin

> <s_m_Source_File>
Thrombin_3b.sdf

> <i_m_Source_File_Index>
1

> <s_i_glide_gridfile>
glide-grid_Thro

> <s_lp_Force_Field>
S-OPLS

> <s_lp_Variant>
3b-1

> <r_i_docking_score>
-10.71440719167

> <r_i_glide_ecoul>
-16.4792518615723

> <r_i_glide_einternal>
1.76128423213959

> <r_i_glide_emodel>
-76.6488849189473

> <r_i_glide_energy>
-58.8258361816406

> <r_i_glide_erotb>
1.206018572776

> <r_i_glide_esite>
-0.0185566766273625

> <r_i_glide_evdw>
-42.3465843200684

> <r_i_glide_gscore>
-10.88640719167

> <r_i_glide_hbond>
-0.864

> <r_i_glide_ligand_efficiency>
-0.382657399702501

> <r_i_glide_ligand_efficiency_ln>
-2.47319976850232

> <r_i_glide_ligand_efficiency_sa>
-1.16197323865259

> <r_i_glide_lipo>
-5.04263218608894

> <r_i_glide_metal>
0

> <r_i_glide_rewards>
-1.57801990649046

> <r_lp_Energy>
40.794627

> <i_i_glide_confnum>
15

> <i_i_glide_lignum>
5

> <i_i_glide_posenum>
8

> <i_i_glide_rotatable_bonds>
9

> <i_lp_mmshare_version>
54117

> <b_lp_Chiralities_Consistent>
1

> <r_i_glide_eff_state_penalty>
0.172

> <s_epik_input>
W2NIXTFbY0hdW2NIXVtjSF1bY0hdYzFbQ0gyXVtDQEBIXShbTkgyXSlDKD1PKU4yW0NAQEhdKFtDSDJdW0NIMl1bQ0gyXTIpQyg9TylbTkhdW0NIMl1jM1tjSF1jKFtDSDJdW0NIM10pW2NIXVtjSF1bY0hdMw==

> <s_epik_cmdline>
J2VwaWtfcHl0aG9uJywgJy1waCcsICc3LjAnLCAnLXRuJywgJzgnLCAnLW1hJywgJzUwMCcsICctaW1hZScsICc8aW5maWxlLm1hZT4nLCAnLW9tYWUnLCAnPG91dGZpbGUubWFlPic=

> <r_epik_Ionization_Penalty>
  0.1825

> <r_epik_Ionization_Penalty_Charging>
  0.1825

> <r_epik_Ionization_Penalty_Neutral>
  0.0000

> <r_epik_State_Penalty>
  0.1720

> <r_epik_Charging_Adjusted_Penalty>
0.354512576374698

> <i_epik_Tot_Q>
1

> <i_epik_Tot_abs_Q>
1

> <s_m_source_file>
ligprep_Thro.maegz

> <i_m_source_file_index>
3

> <i_f3d_flags>
0

> <s_m_job_name>
glide-dock_SP_Thro_other

> <r_user_dG.exp>
-7.86

> <r_m_Molecular_weight>
380.51445

> <r_i_glide_rmsd>
0.0359436921498262

> <s_glide_core_constrain_type>
snapped_core_restrain

> <s_m_subgroup_title>
glide-dock_SP_Thro_other_lib1

> <s_m_subgroupid>
glide-dock_SP_Thro_other_lib1

> <b_m_subgroup_collapsed>
0

$$$$
