/home/yujie/leadopt/data/result/selection/AAK1/lig_33.sdf:1
                    3D
 Schrodinger Suite 2020-3.
 44 46  0  0  1  0            999 V2000
    2.4308   41.3902  -36.6602 C   0  0  0  0  0  0
    3.4514   40.7060  -35.7309 C   0  0  0  0  0  0
    4.8848   41.0137  -36.2066 C   0  0  0  0  0  0
    3.1723   39.1825  -35.6084 C   0  0  0  0  0  0
    4.0430   38.4200  -34.5726 C   0  0  2  0  0  0
    3.7296   37.0016  -34.6385 N   0  0  0  0  0  0
    3.8946   38.9401  -33.1294 C   0  0  0  0  0  0
    2.6180   38.9363  -32.6493 N   0  0  0  0  0  0
    2.3695   39.4547  -31.4163 C   0  0  0  0  0  0
    1.0401   39.4820  -30.9328 C   0  0  0  0  0  0
    0.7541   40.0830  -29.7071 C   0  0  0  0  0  0
    1.7611   40.6629  -28.9276 C   0  0  0  0  0  0
    1.4449   41.3451  -27.6443 C   0  0  0  0  0  0
    0.5869   40.7593  -26.7043 C   0  0  0  0  0  0
    0.3671   41.4080  -25.4888 C   0  0  0  0  0  0
    0.9296   42.6011  -25.1744 N   0  0  0  0  0  0
    1.7395   43.1767  -26.0959 C   0  0  0  0  0  0
    2.0208   42.5857  -27.3286 C   0  0  0  0  0  0
    3.0849   40.6020  -29.3742 C   0  0  0  0  0  0
    3.4086   40.0081  -30.6150 C   0  0  0  0  0  0
    4.7328   39.9542  -31.1084 C   0  0  0  0  0  0
    4.9817   39.4174  -32.3725 C   0  0  0  0  0  0
    6.3603   39.3841  -32.8492 C   0  0  0  0  0  0
    7.4534   39.3573  -33.2283 N   0  0  0  0  0  0
    2.5300   41.0335  -37.6861 H   0  0  0  0  0  0
    2.5710   42.4722  -36.6770 H   0  0  0  0  0  0
    1.4053   41.2035  -36.3395 H   0  0  0  0  0  0
    3.3308   41.1527  -34.7426 H   0  0  0  0  0  0
    5.0916   40.5510  -37.1724 H   0  0  0  0  0  0
    5.0421   42.0869  -36.3214 H   0  0  0  0  0  0
    5.6324   40.6558  -35.4996 H   0  0  0  0  0  0
    2.1187   39.0314  -35.3680 H   0  0  0  0  0  0
    3.3139   38.7289  -36.5913 H   0  0  0  0  0  0
    5.0774   38.4926  -34.9058 H   0  0  0  0  0  0
    4.2762   36.4810  -33.9661 H   0  0  0  0  0  0
    2.7547   36.8220  -34.4051 H   0  0  0  0  0  0
    0.2477   39.0586  -31.5335 H   0  0  0  0  0  0
   -0.2730   40.1189  -29.3711 H   0  0  0  0  0  0
    0.1289   39.8021  -26.8976 H   0  0  0  0  0  0
   -0.2704   40.9709  -24.7356 H   0  0  0  0  0  0
    2.1733   44.1293  -25.8279 H   0  0  0  0  0  0
    2.6803   43.0826  -28.0251 H   0  0  0  0  0  0
    3.8810   41.0240  -28.7769 H   0  0  0  0  0  0
    5.5360   40.3484  -30.4997 H   0  0  0  0  0  0
  1  2  1  0  0  0
  1 25  1  0  0  0
  1 26  1  0  0  0
  1 27  1  0  0  0
  2  3  1  0  0  0
  2  4  1  0  0  0
  2 28  1  0  0  0
  3 29  1  0  0  0
  3 30  1  0  0  0
  3 31  1  0  0  0
  4  5  1  0  0  0
  4 32  1  0  0  0
  4 33  1  0  0  0
  5  6  1  0  0  0
  5  7  1  0  0  0
  5 34  1  0  0  0
  6 35  1  0  0  0
  6 36  1  0  0  0
  7 22  1  0  0  0
  7  8  2  0  0  0
  8  9  1  0  0  0
  9 20  1  0  0  0
  9 10  2  0  0  0
 10 11  1  0  0  0
 10 37  1  0  0  0
 11 12  2  0  0  0
 11 38  1  0  0  0
 12 13  1  0  0  0
 12 19  1  0  0  0
 13 18  1  0  0  0
 13 14  2  0  0  0
 14 15  1  0  0  0
 14 39  1  0  0  0
 15 16  2  0  0  0
 15 40  1  0  0  0
 16 17  1  0  0  0
 17 18  2  0  0  0
 17 41  1  0  0  0
 18 42  1  0  0  0
 19 20  2  0  0  0
 19 43  1  0  0  0
 20 21  1  0  0  0
 21 22  2  0  0  0
 21 44  1  0  0  0
 22 23  1  0  0  0
 23 24  3  0  0  0
M  END
> <s_m_source_file>
/home/yujie/leadopt/data/result/selection/AAK1/lig_33.sdf

> <i_m_source_file_index>
1

> <i_lp_mmshare_version>
51139

> <i_f3d_flags>
0

> <s_epik_input>
W0NIM11bQ0hdKFtDSDNdKVtDSDJdW0NASF0oW05IMl0pYyhuMSljKEMjTilbY0hdYyhjMTIpW2NIXWMoW2NIXVtjSF0yKS1jM1tjSF1bY0hdbltjSF1bY0hdMw==

> <s_epik_cmdline>
J2VwaWtfcHl0aG9uJywgJy1waHQnLCAnMi4wJywgJy1waCcsICc3LjAnLCAnLXRuJywgJzgnLCAnLW1hJywgJzIwMCcsICctaW1hZScsICc8aW5maWxlLm1hZT4nLCAnLW9tYWUnLCAnPG91dGZpbGUubWFlPic=

> <r_epik_Ionization_Penalty>
  1.3266

> <r_epik_Ionization_Penalty_Charging>
  0.0000

> <r_epik_Ionization_Penalty_Neutral>
  1.3266

> <r_epik_State_Penalty>
  1.3756

> <r_epik_Charging_Adjusted_Penalty>
1.37561

> <i_epik_Tot_Q>
0

> <i_epik_Tot_abs_Q>
0

> <s_lp_Force_Field>
OPLS3e

> <r_lp_Energy>
39.4804

> <b_lp_Chiralities_Consistent>
1

> <s_lp_Variant>
/home/yujie/leadopt/data/result/selection/AAK1/lig_33.sdf:1-2

> <s_i_glide_gridfile>
glide-grid_AAK1

> <i_i_glide_lignum>
2

> <i_i_glide_rotatable_bonds>
4

> <r_i_docking_score>
-6.01362436339306

> <r_i_glide_ligand_efficiency>
-0.250567681808044

> <r_i_glide_ligand_efficiency_sa>
-0.722762262075491

> <r_i_glide_ligand_efficiency_ln>
-1.43933625740103

> <r_i_glide_gscore>
-7.38923436339306

> <r_i_glide_lipo>
-3.66741614659561

> <r_i_glide_hbond>
-0.266502698826829

> <r_i_glide_metal>
-0

> <r_i_glide_rewards>
-1.65968680359521

> <r_i_glide_evdw>
-39.1969909667969

> <r_i_glide_ecoul>
-2.62141036987305

> <r_i_glide_erotb>
0.557880407752864

> <r_i_glide_esite>
-0.000448018307470867

> <r_i_glide_emodel>
-59.8744850270507

> <r_i_glide_energy>
-41.8184013366699

> <r_i_glide_einternal>
0.560393273830414

> <i_i_glide_confnum>
13

> <i_i_glide_posenum>
175

> <r_i_glide_eff_state_penalty>
1.37561

$$$$
