/home/yujie/leadopt/data/result/selection/AAK1/lig_24.sdf:1
                    3D
 Schrodinger Suite 2020-3.
 46 48  0  0  1  0            999 V2000
    6.0935   41.2215  -30.7738 C   0  0  0  0  0  0
    5.6403   39.7695  -30.5421 C   0  0  0  0  0  0
    4.3097   39.4516  -31.2210 C   0  0  0  0  0  0
    4.4023   38.8449  -32.4273 N   0  0  0  0  0  0
    3.2276   38.5564  -33.0351 C   0  0  0  0  0  0
    3.3093   37.9448  -34.4262 C   0  0  0  0  0  0
    3.9897   38.8538  -35.4830 C   0  0  0  0  0  0
    3.3816   40.2697  -35.6638 C   0  0  0  0  0  0
    1.8678   40.2314  -35.9416 C   0  0  0  0  0  0
    4.1180   41.0583  -36.7625 C   0  0  0  0  0  0
    1.9793   38.7891  -32.5509 N   0  0  0  0  0  0
    1.8993   39.4010  -31.3361 C   0  0  0  0  0  0
    0.6243   39.6740  -30.7955 C   0  0  0  0  0  0
    0.5089   40.3491  -29.5841 C   0  0  0  0  0  0
    1.6389   40.7674  -28.8742 C   0  0  0  0  0  0
    2.9104   40.4765  -29.3805 C   0  0  0  0  0  0
    3.0662   39.7915  -30.6108 C   0  0  0  0  0  0
    1.5044   41.5207  -27.6012 C   0  0  0  0  0  0
    2.3101   42.6419  -27.3454 C   0  0  0  0  0  0
    2.1891   43.3067  -26.1260 C   0  0  0  0  0  0
    1.3189   42.9160  -25.1667 N   0  0  0  0  0  0
    0.5295   41.8396  -25.4205 C   0  0  0  0  0  0
    0.5900   41.1251  -26.6162 C   0  0  0  0  0  0
    7.0493   41.4139  -30.2840 H   0  0  0  0  0  0
    6.2205   41.4301  -31.8367 H   0  0  0  0  0  0
    5.3709   41.9372  -30.3781 H   0  0  0  0  0  0
    5.5726   39.5503  -29.4751 H   0  0  0  0  0  0
    6.4123   39.0930  -30.9170 H   0  0  0  0  0  0
    2.3130   37.6559  -34.7684 H   0  0  0  0  0  0
    3.8592   37.0047  -34.3443 H   0  0  0  0  0  0
    3.9752   38.3327  -36.4411 H   0  0  0  0  0  0
    5.0442   38.9550  -35.2234 H   0  0  0  0  0  0
    3.5241   40.8191  -34.7308 H   0  0  0  0  0  0
    1.6331   39.5685  -36.7733 H   0  0  0  0  0  0
    1.4729   41.2210  -36.1815 H   0  0  0  0  0  0
    1.3292   39.8719  -35.0692 H   0  0  0  0  0  0
    4.0033   40.5873  -37.7397 H   0  0  0  0  0  0
    3.7363   42.0772  -36.8420 H   0  0  0  0  0  0
    5.1856   41.1294  -36.5538 H   0  0  0  0  0  0
   -0.2595   39.3706  -31.3385 H   0  0  0  0  0  0
   -0.4805   40.5651  -29.2010 H   0  0  0  0  0  0
    3.7867   40.7817  -28.8291 H   0  0  0  0  0  0
    3.0210   42.9913  -28.0795 H   0  0  0  0  0  0
    2.7954   44.1709  -25.9000 H   0  0  0  0  0  0
   -0.1680   41.5474  -24.6480 H   0  0  0  0  0  0
   -0.0540   40.2703  -26.7667 H   0  0  0  0  0  0
  1  2  1  0  0  0
  1 24  1  0  0  0
  1 25  1  0  0  0
  1 26  1  0  0  0
  2  3  1  0  0  0
  2 27  1  0  0  0
  2 28  1  0  0  0
  3 17  1  0  0  0
  3  4  2  0  0  0
  4  5  1  0  0  0
  5  6  1  0  0  0
  5 11  2  0  0  0
  6  7  1  0  0  0
  6 29  1  0  0  0
  6 30  1  0  0  0
  7  8  1  0  0  0
  7 31  1  0  0  0
  7 32  1  0  0  0
  8  9  1  0  0  0
  8 10  1  0  0  0
  8 33  1  0  0  0
  9 34  1  0  0  0
  9 35  1  0  0  0
  9 36  1  0  0  0
 10 37  1  0  0  0
 10 38  1  0  0  0
 10 39  1  0  0  0
 11 12  1  0  0  0
 12 17  1  0  0  0
 12 13  2  0  0  0
 13 14  1  0  0  0
 13 40  1  0  0  0
 14 15  2  0  0  0
 14 41  1  0  0  0
 15 16  1  0  0  0
 15 18  1  0  0  0
 16 17  2  0  0  0
 16 42  1  0  0  0
 18 23  1  0  0  0
 18 19  2  0  0  0
 19 20  1  0  0  0
 19 43  1  0  0  0
 20 21  2  0  0  0
 20 44  1  0  0  0
 21 22  1  0  0  0
 22 23  2  0  0  0
 22 45  1  0  0  0
 23 46  1  0  0  0
M  END
> <s_m_source_file>
/home/yujie/leadopt/data/result/selection/AAK1/lig_24.sdf

> <i_m_source_file_index>
1

> <i_lp_mmshare_version>
51139

> <i_f3d_flags>
0

> <s_epik_input>
W0NIM11bQ0hdKFtDSDNdKVtDSDJdW0NIMl1jKG4xKW5jKFtDSDJdW0NIM10pYyhjMTIpW2NIXWMoW2NIXVtjSF0yKS1jM1tjSF1bY0hdbltjSF1bY0hdMw==

> <s_epik_cmdline>
J2VwaWtfcHl0aG9uJywgJy1waHQnLCAnMi4wJywgJy1waCcsICc3LjAnLCAnLXRuJywgJzgnLCAnLW1hJywgJzIwMCcsICctaW1hZScsICc8aW5maWxlLm1hZT4nLCAnLW9tYWUnLCAnPG91dGZpbGUubWFlPic=

> <r_lp_tautomer_probability>
1

> <r_epik_Ionization_Penalty>
  0.0103

> <r_epik_Ionization_Penalty_Charging>
  0.0000

> <r_epik_Ionization_Penalty_Neutral>
  0.0103

> <r_epik_State_Penalty>
 -0.0000

> <r_epik_Charging_Adjusted_Penalty>
0

> <i_epik_Tot_Q>
0

> <i_epik_Tot_abs_Q>
0

> <s_epik_Chemistry_Notes>
This compound contains an electron-poor aromatic ring that is susceptible to covalent hydrolysis at low pH, typically resulting in measured values for nitrogen ring protonation that are around two units higher than predicted values.

> <s_lp_Force_Field>
OPLS3e

> <r_lp_Energy>
34.6131

> <b_lp_Chiralities_Consistent>
1

> <s_lp_Variant>
/home/yujie/leadopt/data/result/selection/AAK1/lig_24.sdf:1-1

> <s_i_glide_gridfile>
glide-grid_AAK1

> <i_i_glide_lignum>
1

> <i_i_glide_rotatable_bonds>
5

> <r_i_docking_score>
-7.70516960526168

> <r_i_glide_ligand_efficiency>
-0.335007374141812

> <r_i_glide_ligand_efficiency_sa>
-0.952716408332933

> <r_i_glide_ligand_efficiency_ln>
-1.86317987716748

> <r_i_glide_gscore>
-7.70516960526168

> <r_i_glide_lipo>
-3.66566312081288

> <r_i_glide_hbond>
-0.1867522051772

> <r_i_glide_metal>
-0

> <r_i_glide_rewards>
-2.21903911809839

> <r_i_glide_evdw>
-38.5400161743164

> <r_i_glide_ecoul>
-1.86119174957275

> <r_i_glide_erotb>
0.593598609071182

> <r_i_glide_esite>
-0.0211341990926546

> <r_i_glide_emodel>
-59.0096993159777

> <r_i_glide_energy>
-40.4012079238892

> <r_i_glide_einternal>
0.578743517398834

> <i_i_glide_confnum>
13

> <i_i_glide_posenum>
49

> <r_i_glide_eff_state_penalty>
-0

$$$$
