/home/yujie/leadopt/data/result/selection/AAK1/lig_23.sdf:1
                    3D
 Schrodinger Suite 2020-3.
 48 50  0  0  1  0            999 V2000
    6.0019   41.4283  -30.8147 C   0  0  0  0  0  0
    5.6194   39.9490  -30.6462 C   0  0  0  0  0  0
    4.2886   39.6015  -31.3090 C   0  0  0  0  0  0
    4.3814   39.0586  -32.5457 N   0  0  0  0  0  0
    3.2071   38.7419  -33.1522 C   0  0  0  0  0  0
    1.9625   38.9058  -32.6266 N   0  0  0  0  0  0
    1.8813   39.4589  -31.3826 C   0  0  0  0  0  0
    0.6072   39.6760  -30.8096 C   0  0  0  0  0  0
    0.4941   40.3158  -29.5770 C   0  0  0  0  0  0
    1.6224   40.7529  -28.8762 C   0  0  0  0  0  0
    2.8917   40.5036  -29.4067 C   0  0  0  0  0  0
    3.0460   39.8645  -30.6627 C   0  0  0  0  0  0
    1.4877   41.4969  -27.5961 C   0  0  0  0  0  0
    0.5965   41.0764  -26.5994 C   0  0  0  0  0  0
    0.5294   41.7926  -25.4042 C   0  0  0  0  0  0
    1.2780   42.8982  -25.1621 N   0  0  0  0  0  0
    2.1272   43.3108  -26.1336 C   0  0  0  0  0  0
    2.2602   42.6431  -27.3512 C   0  0  0  0  0  0
    3.2517   38.1927  -34.5875 C   0  0  2  0  0  0
    4.5208   37.5759  -34.9600 N   0  0  0  0  0  0
    2.8030   39.2279  -35.6576 C   0  0  0  0  0  0
    3.4556   40.6391  -35.6378 C   0  0  0  0  0  0
    2.7268   41.5935  -36.6049 C   0  0  0  0  0  0
    4.9651   40.6216  -35.9427 C   0  0  0  0  0  0
    6.9571   41.6404  -30.3333 H   0  0  0  0  0  0
    6.0982   41.6905  -31.8688 H   0  0  0  0  0  0
    5.2566   42.0909  -30.3746 H   0  0  0  0  0  0
    5.5881   39.6744  -29.5912 H   0  0  0  0  0  0
    6.4105   39.3287  -31.0726 H   0  0  0  0  0  0
   -0.2769   39.3678  -31.3488 H   0  0  0  0  0  0
   -0.4930   40.5002  -29.1763 H   0  0  0  0  0  0
    3.7692   40.8209  -28.8639 H   0  0  0  0  0  0
   -0.0205   40.2019  -26.7393 H   0  0  0  0  0  0
   -0.1460   41.4813  -24.6208 H   0  0  0  0  0  0
    2.7102   44.1949  -25.9197 H   0  0  0  0  0  0
    2.9515   43.0135  -28.0942 H   0  0  0  0  0  0
    2.5275   37.3782  -34.6061 H   0  0  0  0  0  0
    4.6957   36.8001  -34.3351 H   0  0  0  0  0  0
    4.4534   37.1901  -35.8899 H   0  0  0  0  0  0
    1.7286   39.3587  -35.5336 H   0  0  0  0  0  0
    2.9124   38.7943  -36.6531 H   0  0  0  0  0  0
    3.3332   41.0536  -34.6357 H   0  0  0  0  0  0
    2.8217   41.2640  -37.6403 H   0  0  0  0  0  0
    3.1309   42.6038  -36.5438 H   0  0  0  0  0  0
    1.6624   41.6606  -36.3772 H   0  0  0  0  0  0
    5.1723   40.1501  -36.9038 H   0  0  0  0  0  0
    5.3748   41.6315  -35.9768 H   0  0  0  0  0  0
    5.5210   40.0804  -35.1768 H   0  0  0  0  0  0
  1  2  1  0  0  0
  1 25  1  0  0  0
  1 26  1  0  0  0
  1 27  1  0  0  0
  2  3  1  0  0  0
  2 28  1  0  0  0
  2 29  1  0  0  0
  3 12  1  0  0  0
  3  4  2  0  0  0
  4  5  1  0  0  0
  5  6  2  0  0  0
  5 19  1  0  0  0
  6  7  1  0  0  0
  7 12  1  0  0  0
  7  8  2  0  0  0
  8  9  1  0  0  0
  8 30  1  0  0  0
  9 10  2  0  0  0
  9 31  1  0  0  0
 10 11  1  0  0  0
 10 13  1  0  0  0
 11 12  2  0  0  0
 11 32  1  0  0  0
 13 18  1  0  0  0
 13 14  2  0  0  0
 14 15  1  0  0  0
 14 33  1  0  0  0
 15 16  2  0  0  0
 15 34  1  0  0  0
 16 17  1  0  0  0
 17 18  2  0  0  0
 17 35  1  0  0  0
 18 36  1  0  0  0
 19 20  1  0  0  0
 19 21  1  0  0  0
 19 37  1  0  0  0
 20 38  1  0  0  0
 20 39  1  0  0  0
 21 22  1  0  0  0
 21 40  1  0  0  0
 21 41  1  0  0  0
 22 23  1  0  0  0
 22 24  1  0  0  0
 22 42  1  0  0  0
 23 43  1  0  0  0
 23 44  1  0  0  0
 23 45  1  0  0  0
 24 46  1  0  0  0
 24 47  1  0  0  0
 24 48  1  0  0  0
M  END
> <s_m_source_file>
/home/yujie/leadopt/data/result/selection/AAK1/lig_23.sdf

> <i_m_source_file_index>
1

> <i_lp_mmshare_version>
51139

> <i_f3d_flags>
0

> <s_epik_input>
W0NIM11bQ0hdKFtDSDNdKVtDSDJdW0NAQEhdKFtOSDJdKWMobjEpbmMoW0NIMl1bQ0gzXSljKGMxMilbY0hdYyhbY0hdW2NIXTIpLWMzW2NIXVtjSF1uW2NIXVtjSF0z

> <s_epik_cmdline>
J2VwaWtfcHl0aG9uJywgJy1waHQnLCAnMi4wJywgJy1waCcsICc3LjAnLCAnLXRuJywgJzgnLCAnLW1hJywgJzIwMCcsICctaW1hZScsICc8aW5maWxlLm1hZT4nLCAnLW9tYWUnLCAnPG91dGZpbGUubWFlPic=

> <r_lp_tautomer_probability>
1

> <r_epik_Ionization_Penalty>
  1.2474

> <r_epik_Ionization_Penalty_Charging>
  0.0000

> <r_epik_Ionization_Penalty_Neutral>
  1.2474

> <r_epik_State_Penalty>
  1.2900

> <r_epik_Charging_Adjusted_Penalty>
1.29001

> <i_epik_Tot_Q>
0

> <i_epik_Tot_abs_Q>
0

> <s_epik_Chemistry_Notes>
This compound contains an electron-poor aromatic ring that is susceptible to covalent hydrolysis at low pH, typically resulting in measured values for nitrogen ring protonation that are around two units higher than predicted values.

> <s_lp_Force_Field>
OPLS3e

> <r_lp_Energy>
39.1072

> <b_lp_Chiralities_Consistent>
1

> <s_lp_Variant>
/home/yujie/leadopt/data/result/selection/AAK1/lig_23.sdf:1-2

> <s_i_glide_gridfile>
glide-grid_AAK1

> <i_i_glide_lignum>
2

> <i_i_glide_rotatable_bonds>
5

> <r_i_docking_score>
-6.66460815783939

> <r_i_glide_ligand_efficiency>
-0.277692006576641

> <r_i_glide_ligand_efficiency_sa>
-0.801002353477383

> <r_i_glide_ligand_efficiency_ln>
-1.5951465511119

> <r_i_glide_gscore>
-7.95461815783939

> <r_i_glide_lipo>
-3.82911375395695

> <r_i_glide_hbond>
-0.190879310189925

> <r_i_glide_metal>
-0

> <r_i_glide_rewards>
-2.16557624722243

> <r_i_glide_evdw>
-39.7959861755371

> <r_i_glide_ecoul>
-2.03339004516602

> <r_i_glide_erotb>
0.545578469822571

> <r_i_glide_esite>
-0.0198195007409057

> <r_i_glide_emodel>
-62.2460995008201

> <r_i_glide_energy>
-41.8293762207031

> <r_i_glide_einternal>
0.445144563913345

> <i_i_glide_confnum>
18

> <i_i_glide_posenum>
207

> <r_i_glide_eff_state_penalty>
1.29001

$$$$
