/home/yujie/leadopt/data/result/selection/AAK1/lig_(S)-32.sdf:1
                    3D
 Schrodinger Suite 2020-3.
 45 47  0  0  1  0            999 V2000
    2.4312   41.2506  -36.3743 C   0  0  0  0  0  0
    3.4421   40.6415  -35.3830 C   0  0  0  0  0  0
    4.8816   40.8840  -35.8769 C   0  0  0  0  0  0
    3.1383   39.1417  -35.1283 C   0  0  0  0  0  0
    4.0230   38.4482  -34.0595 C   0  0  2  0  0  0
    3.7298   37.0248  -34.0572 N   0  0  0  0  0  0
    3.9106   39.0473  -32.6523 C   0  0  0  0  0  0
    2.6698   39.1197  -32.1017 N   0  0  0  0  0  0
    2.5253   39.7251  -30.8890 C   0  0  0  0  0  0
    1.2248   39.8314  -30.3459 C   0  0  0  0  0  0
    1.0089   40.5024  -29.1410 C   0  0  0  0  0  0
   -0.2690   40.6388  -28.6608 O   0  0  0  0  0  0
   -1.0698   41.5387  -29.4122 C   0  0  0  0  0  0
    2.0785   41.0624  -28.4357 C   0  0  0  0  0  0
    1.8570   41.8326  -27.1737 C   0  0  0  0  0  0
    0.9293   41.8011  -26.1395 C   0  0  0  0  0  0
    1.1836   42.7284  -25.2340 N   0  0  0  0  0  0
    2.2394   43.3469  -25.7065 C   0  0  0  0  0  0
    2.7076   42.8486  -26.8797 O   0  0  0  0  0  0
    3.3763   40.9342  -28.9337 C   0  0  0  0  0  0
    3.6334   40.2719  -30.1702 C   0  0  0  0  0  0
    4.9331   40.1298  -30.7543 C   0  0  0  0  0  0
    6.1425   40.6151  -30.0978 C   0  0  0  0  0  0
    7.0986   41.0012  -29.5753 N   0  0  0  0  0  0
    5.0505   39.5203  -32.0048 C   0  0  0  0  0  0
    5.0613   38.5247  -34.3857 H   0  0  0  0  0  0
    2.5277   40.8044  -37.3654 H   0  0  0  0  0  0
    2.5815   42.3259  -36.4851 H   0  0  0  0  0  0
    1.4036   41.0992  -36.0406 H   0  0  0  0  0  0
    3.3295   41.1731  -34.4367 H   0  0  0  0  0  0
    5.0904   40.3224  -36.7883 H   0  0  0  0  0  0
    5.0500   41.9378  -36.0989 H   0  0  0  0  0  0
    5.6201   40.5954  -35.1291 H   0  0  0  0  0  0
    2.0895   39.0324  -34.8467 H   0  0  0  0  0  0
    3.2422   38.6087  -36.0758 H   0  0  0  0  0  0
    4.1922   36.5523  -33.2921 H   0  0  0  0  0  0
    2.7334   36.8225  -33.9740 H   0  0  0  0  0  0
    0.3896   39.4106  -30.8871 H   0  0  0  0  0  0
   -1.9713   41.8017  -28.8618 H   0  0  0  0  0  0
   -0.5418   42.4723  -29.5735 H   0  0  0  0  0  0
   -1.3644   41.1178  -30.3732 H   0  0  0  0  0  0
    0.0939   41.1211  -26.0474 H   0  0  0  0  0  0
    2.7901   44.1759  -25.2849 H   0  0  0  0  0  0
    4.1985   41.3637  -28.3794 H   0  0  0  0  0  0
    6.0173   39.4231  -32.4795 H   0  0  0  0  0  0
  1  2  1  0  0  0
  1 27  1  0  0  0
  1 28  1  0  0  0
  1 29  1  0  0  0
  2  3  1  0  0  0
  2  4  1  0  0  0
  2 30  1  0  0  0
  3 31  1  0  0  0
  3 32  1  0  0  0
  3 33  1  0  0  0
  4  5  1  0  0  0
  4 34  1  0  0  0
  4 35  1  0  0  0
  5 26  1  0  0  0
  5  6  1  0  0  0
  5  7  1  0  0  0
  6 36  1  0  0  0
  6 37  1  0  0  0
  7 25  1  0  0  0
  7  8  2  0  0  0
  8  9  1  0  0  0
  9 21  1  0  0  0
  9 10  2  0  0  0
 10 11  1  0  0  0
 10 38  1  0  0  0
 11 12  1  0  0  0
 11 14  2  0  0  0
 12 13  1  0  0  0
 13 39  1  0  0  0
 13 40  1  0  0  0
 13 41  1  0  0  0
 14 15  1  0  0  0
 14 20  1  0  0  0
 15 19  1  0  0  0
 15 16  2  0  0  0
 16 17  1  0  0  0
 16 42  1  0  0  0
 17 18  2  0  0  0
 18 19  1  0  0  0
 18 43  1  0  0  0
 20 21  2  0  0  0
 20 44  1  0  0  0
 21 22  1  0  0  0
 22 23  1  0  0  0
 22 25  2  0  0  0
 23 24  3  0  0  0
 25 45  1  0  0  0
M  END
> <s_m_source_file>
/home/yujie/leadopt/data/result/selection/AAK1/lig_(S)-32.sdf

> <i_m_source_file_index>
1

> <i_lp_mmshare_version>
51139

> <i_f3d_flags>
0

> <s_epik_input>
W0NIM11bQ0hdKFtDSDNdKVtDSDJdW0NASF0oW05IMl0pYyhuMSlbY0hdYyhDI04pYyhjMTIpW2NIXWMoYyhbY0hdMilPW0NIM10pLWMzW2NIXW5bY0hdbzM=

> <s_epik_cmdline>
J2VwaWtfcHl0aG9uJywgJy1waHQnLCAnMi4wJywgJy1waCcsICc3LjAnLCAnLXRuJywgJzgnLCAnLW1hJywgJzIwMCcsICctaW1hZScsICc8aW5maWxlLm1hZT4nLCAnLW9tYWUnLCAnPG91dGZpbGUubWFlPic=

> <r_epik_Ionization_Penalty>
  1.4532

> <r_epik_Ionization_Penalty_Charging>
  0.0000

> <r_epik_Ionization_Penalty_Neutral>
  1.4532

> <r_epik_State_Penalty>
  1.5390

> <r_epik_Charging_Adjusted_Penalty>
1.53902

> <i_epik_Tot_Q>
0

> <i_epik_Tot_abs_Q>
0

> <s_lp_Force_Field>
OPLS3e

> <r_lp_Energy>
34.1744

> <b_lp_Chiralities_Consistent>
1

> <s_lp_Variant>
/home/yujie/leadopt/data/result/selection/AAK1/lig_(S)-32.sdf:1-2

> <s_i_glide_gridfile>
glide-grid_AAK1

> <i_i_glide_lignum>
2

> <i_i_glide_rotatable_bonds>
5

> <r_i_docking_score>
-4.868961406296

> <r_i_glide_ligand_efficiency>
-0.19475845625184

> <r_i_glide_ligand_efficiency_sa>
-0.569477180136309

> <r_i_glide_ligand_efficiency_ln>
-1.1540897642912

> <r_i_glide_gscore>
-6.407981406296

> <r_i_glide_lipo>
-3.01823107722349

> <r_i_glide_hbond>
-0.272051663782803

> <r_i_glide_metal>
-0

> <r_i_glide_rewards>
-1.43961217674956

> <r_i_glide_evdw>
-37.0532875061035

> <r_i_glide_ecoul>
-2.17412543296814

> <r_i_glide_erotb>
0.500696701710254

> <r_i_glide_esite>
0

> <r_i_glide_emodel>
-54.3838792237003

> <r_i_glide_energy>
-39.2274129390717

> <r_i_glide_einternal>
4.56484508514404

> <i_i_glide_confnum>
11

> <i_i_glide_posenum>
363

> <r_i_glide_eff_state_penalty>
1.53902

$$$$
