/home/yujie/leadopt/data/result/selection/AAK1/lig_22.sdf:1
                    3D
 Schrodinger Suite 2020-3.
 44 46  0  0  1  0            999 V2000
   -1.6235   41.4539  -29.9740 C   0  0  0  0  0  0
   -0.5739   41.4016  -29.0095 O   0  0  0  0  0  0
    0.6702   40.9160  -29.3616 C   0  0  0  0  0  0
    1.7389   41.1768  -28.4917 C   0  0  0  0  0  0
    3.0384   40.7977  -28.8274 C   0  0  0  0  0  0
    3.3015   40.1120  -30.0396 C   0  0  0  0  0  0
    2.2089   39.7896  -30.8980 C   0  0  0  0  0  0
    0.9041   40.2016  -30.5456 C   0  0  0  0  0  0
    2.3907   39.1185  -32.0713 N   0  0  0  0  0  0
    3.6661   38.7863  -32.4016 C   0  0  0  0  0  0
    4.7822   39.0518  -31.6728 N   0  0  0  0  0  0
    4.5871   39.7020  -30.5018 C   0  0  0  0  0  0
    5.8131   39.9793  -29.7630 C   0  0  0  0  0  0
    6.7826   40.2066  -29.1740 N   0  0  0  0  0  0
    3.8503   38.1022  -33.7610 C   0  0  2  0  0  0
    4.7430   36.9540  -33.6649 N   0  0  0  0  0  0
    4.4052   39.0558  -34.8526 C   0  0  0  0  0  0
    3.5688   40.3317  -35.1417 C   0  0  0  0  0  0
    2.1275   40.0114  -35.5822 C   0  0  0  0  0  0
    4.2627   41.2265  -36.1868 C   0  0  0  0  0  0
    1.5490   41.8613  -27.1830 C   0  0  0  0  0  0
    0.6078   41.8015  -26.1672 C   0  0  0  0  0  0
    0.9296   42.6076  -25.1740 N   0  0  0  0  0  0
    2.0394   43.1797  -25.5740 C   0  0  0  0  0  0
    2.4807   42.7640  -26.7873 O   0  0  0  0  0  0
   -2.5245   41.8207  -29.4860 H   0  0  0  0  0  0
   -1.4704   42.1302  -30.8073 H   0  0  0  0  0  0
   -1.8501   40.4677  -30.3741 H   0  0  0  0  0  0
    3.8545   41.0224  -28.1555 H   0  0  0  0  0  0
    0.1034   39.9660  -31.2290 H   0  0  0  0  0  0
    2.8904   37.7027  -34.0948 H   0  0  0  0  0  0
    5.6637   37.2510  -33.3761 H   0  0  0  0  0  0
    4.4105   36.3038  -32.9631 H   0  0  0  0  0  0
    4.5090   38.4967  -35.7846 H   0  0  0  0  0  0
    5.4171   39.3587  -34.5770 H   0  0  0  0  0  0
    3.5093   40.9122  -34.2193 H   0  0  0  0  0  0
    2.1136   39.3671  -36.4621 H   0  0  0  0  0  0
    1.5755   40.9184  -35.8317 H   0  0  0  0  0  0
    1.5735   39.5088  -34.7900 H   0  0  0  0  0  0
    4.3163   40.7379  -37.1609 H   0  0  0  0  0  0
    3.7286   42.1684  -36.3209 H   0  0  0  0  0  0
    5.2816   41.4731  -35.8874 H   0  0  0  0  0  0
   -0.2768   41.1818  -26.1454 H   0  0  0  0  0  0
    2.6508   43.9133  -25.0685 H   0  0  0  0  0  0
  1  2  1  0  0  0
  1 26  1  0  0  0
  1 27  1  0  0  0
  1 28  1  0  0  0
  2  3  1  0  0  0
  3  8  1  0  0  0
  3  4  2  0  0  0
  4  5  1  0  0  0
  4 21  1  0  0  0
  5  6  2  0  0  0
  5 29  1  0  0  0
  6 12  1  0  0  0
  6  7  1  0  0  0
  7  8  2  0  0  0
  7  9  1  0  0  0
  8 30  1  0  0  0
  9 10  2  0  0  0
 10 11  1  0  0  0
 10 15  1  0  0  0
 11 12  2  0  0  0
 12 13  1  0  0  0
 13 14  3  0  0  0
 15 16  1  0  0  0
 15 17  1  0  0  0
 15 31  1  0  0  0
 16 32  1  0  0  0
 16 33  1  0  0  0
 17 18  1  0  0  0
 17 34  1  0  0  0
 17 35  1  0  0  0
 18 19  1  0  0  0
 18 20  1  0  0  0
 18 36  1  0  0  0
 19 37  1  0  0  0
 19 38  1  0  0  0
 19 39  1  0  0  0
 20 40  1  0  0  0
 20 41  1  0  0  0
 20 42  1  0  0  0
 21 25  1  0  0  0
 21 22  2  0  0  0
 22 23  1  0  0  0
 22 43  1  0  0  0
 23 24  2  0  0  0
 24 25  1  0  0  0
 24 44  1  0  0  0
M  END
> <s_m_source_file>
/home/yujie/leadopt/data/result/selection/AAK1/lig_22.sdf

> <i_m_source_file_index>
1

> <i_lp_mmshare_version>
51139

> <i_f3d_flags>
0

> <s_epik_input>
bzFbY0hdbltjSF1jMS1jKFtjSF0yKWMoT1tDSDNdKVtjSF1jKGMyMyluYyhuYzNDI04pW0NASF0oW05IMl0pW0NIMl1bQ0hdKFtDSDNdKVtDSDNd

> <s_epik_cmdline>
J2VwaWtfcHl0aG9uJywgJy1waHQnLCAnMi4wJywgJy1waCcsICc3LjAnLCAnLXRuJywgJzgnLCAnLW1hJywgJzIwMCcsICctaW1hZScsICc8aW5maWxlLm1hZT4nLCAnLW9tYWUnLCAnPG91dGZpbGUubWFlPic=

> <r_epik_Ionization_Penalty>
  1.0830

> <r_epik_Ionization_Penalty_Charging>
  0.0000

> <r_epik_Ionization_Penalty_Neutral>
  1.0830

> <r_epik_State_Penalty>
  1.1386

> <r_epik_Charging_Adjusted_Penalty>
1.13856

> <i_epik_Tot_Q>
0

> <i_epik_Tot_abs_Q>
0

> <s_epik_Chemistry_Notes>
This compound contains an electron-poor aromatic ring that is susceptible to covalent hydrolysis at low pH, typically resulting in measured values for nitrogen ring protonation that are around two units higher than predicted values.

> <s_lp_Force_Field>
OPLS3e

> <r_lp_Energy>
34.0773

> <b_lp_Chiralities_Consistent>
1

> <s_lp_Variant>
/home/yujie/leadopt/data/result/selection/AAK1/lig_22.sdf:1-2

> <s_i_glide_gridfile>
glide-grid_AAK1

> <i_i_glide_lignum>
2

> <i_i_glide_rotatable_bonds>
5

> <r_i_docking_score>
-5.05802311896685

> <r_i_glide_ligand_efficiency>
-0.202320924758674

> <r_i_glide_ligand_efficiency_sa>
-0.591589972171242

> <r_i_glide_ligand_efficiency_ln>
-1.19890305591653

> <r_i_glide_gscore>
-6.19658311896685

> <r_i_glide_lipo>
-2.88664098143008

> <r_i_glide_hbond>
-0.129713072017275

> <r_i_glide_metal>
-0

> <r_i_glide_rewards>
-1.69269658040086

> <r_i_glide_evdw>
-37.188591003418

> <r_i_glide_ecoul>
-0.841369807720184

> <r_i_glide_erotb>
0.498102536210293

> <r_i_glide_esite>
0

> <r_i_glide_emodel>
-53.3224605711709

> <r_i_glide_energy>
-38.0299608111382

> <r_i_glide_einternal>
1.98331606388092

> <i_i_glide_confnum>
10

> <i_i_glide_posenum>
307

> <r_i_glide_eff_state_penalty>
1.13856

$$$$
