ejm_49
                    3D
 Schrodinger Suite 2021-2.
 39 41  0  0  1  0            999 V2000
   -1.9445   21.4797  -27.4683 C   0  0  0  0  0  0
   -2.8632   20.7119  -28.1988 C   0  0  0  0  0  0
   -3.5534   21.2514  -29.3113 C   0  0  0  0  0  0
   -3.3293   22.5988  -29.6631 C   0  0  0  0  0  0
   -2.3827   23.3563  -28.9359 C   0  0  0  0  0  0
   -1.6800   22.7948  -27.8623 C   0  0  0  0  0  0
   -2.0771   25.0098  -29.2931 Cl  0  0  0  0  0  0
   -4.0378   23.1674  -30.8564 C   0  0  0  0  0  0
   -4.1324   22.5228  -31.9012 O   0  0  0  0  0  0
   -4.5575   24.3844  -30.6896 N   0  0  0  0  0  0
   -5.3245   25.1116  -31.6048 C   0  0  0  0  0  0
   -5.9870   24.5545  -32.7186 C   0  0  0  0  0  0
   -6.7937   25.3971  -33.4916 C   0  0  0  0  0  0
   -6.9471   26.7077  -33.2275 N   0  0  0  0  0  0
   -6.3163   27.2531  -32.1644 C   0  0  0  0  0  0
   -5.5090   26.4651  -31.3159 C   0  0  0  0  0  0
   -6.5608   28.5916  -31.8374 N   0  0  0  0  0  0
   -5.7382   29.4288  -31.1516 C   0  0  0  0  0  0
   -4.6403   29.0921  -30.7396 O   0  0  0  0  0  0
   -4.5885   20.2479  -30.3076 Cl  0  0  0  0  0  0
   -1.4474   21.0541  -26.6085 H   0  0  0  0  0  0
   -3.0560   19.6872  -27.9159 H   0  0  0  0  0  0
   -0.9346   23.3757  -27.3388 H   0  0  0  0  0  0
   -4.4106   24.8815  -29.8228 H   0  0  0  0  0  0
   -5.8631   23.5071  -32.9516 H   0  0  0  0  0  0
   -7.3275   25.0019  -34.3434 H   0  0  0  0  0  0
   -5.0355   26.9013  -30.4487 H   0  0  0  0  0  0
   -7.4268   29.0308  -32.1179 H   0  0  0  0  0  0
   -7.0618   33.4847  -30.3750 C   0  0  0  0  0  0
   -7.2785   32.9045  -31.6356 C   0  0  0  0  0  0
   -6.8498   31.5908  -31.8872 C   0  0  0  0  0  0
   -6.2044   30.8575  -30.8781 C   0  0  0  0  0  0
   -5.9877   31.4376  -29.6175 C   0  0  0  0  0  0
   -6.4164   32.7513  -29.3659 C   0  0  0  0  0  0
   -7.3986   34.5167  -30.1775 H   0  0  0  0  0  0
   -7.7855   33.4807  -32.4285 H   0  0  0  0  0  0
   -7.0201   31.1350  -32.8775 H   0  0  0  0  0  0
   -5.4807   30.8614  -28.8248 H   0  0  0  0  0  0
   -6.2461   33.2071  -28.3756 H   0  0  0  0  0  0
  1  2  1  0  0  0
  1  6  2  0  0  0
  1 21  1  0  0  0
  2  3  2  0  0  0
  2 22  1  0  0  0
  3  4  1  0  0  0
  3 20  1  0  0  0
  4  5  2  0  0  0
  4  8  1  0  0  0
  5  6  1  0  0  0
  5  7  1  0  0  0
  6 23  1  0  0  0
  8  9  2  0  0  0
  8 10  1  0  0  0
 10 11  1  0  0  0
 10 24  1  0  0  0
 11 12  1  0  0  0
 11 16  2  0  0  0
 12 13  2  0  0  0
 12 25  1  0  0  0
 13 14  1  0  0  0
 13 26  1  0  0  0
 14 15  2  0  0  0
 15 16  1  0  0  0
 15 17  1  0  0  0
 16 27  1  0  0  0
 17 18  1  0  0  0
 17 28  1  0  0  0
 18 19  2  0  0  0
 18 32  1  0  0  0
 29 30  2  0  0  0
 29 34  1  0  0  0
 29 35  1  0  0  0
 30 31  1  0  0  0
 30 36  1  0  0  0
 31 32  2  0  0  0
 31 37  1  0  0  0
 32 33  1  0  0  0
 33 34  2  0  0  0
 33 38  1  0  0  0
 34 39  1  0  0  0
M  END
> <s_m_entry_id>
764

> <s_m_entry_name>
Tyk2_ejm_49.1

> <r_user_dG.exp>
-7.75

> <r_m_Molecular_weight>
386.24036

> <s_m_Source_Path>
C:\Users\yujiethinkpad\Desktop\05A\Tyk2

> <s_m_Source_File>
Tyk2_ejm_49.sdf

> <i_m_Source_File_Index>
1

> <s_m_job_name>
align_ligands_0658

> <i_phase_Input_Structure_Number>
15

> <i_phase_Structure_Number>
15

> <r_phase_Similarity_to_Reference>
0.81802874897047

> <i_phase_Reference_Structure>
16

> <s_phase_Alignment_Method>
snapped core

> <s_phase_Alignment_Reason>


> <s_phase_Core_SMARTS>
a1aaaaa1A(=A)Aa2aaaaa2

> <s_f3d_frozen_atoms>
3 2 1 6 5 4 8 9 10 11 12 13 14 15 16 20 22 21 23 7 9 24 25 26 27

> <s_fepmapper_entryid>
9

> <i_fepmapper_bias>
0

> <i_fepmapper_affinity>
1

> <r_fepmapper_exp_dG>
-7.75

> <i_fepmapper_unit>
1

> <s_m_subgroup_title>
align_ligands_0658

> <s_m_subgroupid>
align_ligands_0658

> <b_m_subgroup_collapsed>
0

$$$$
