7a
                    3D
 Schrodinger Suite 2021-2.
 58 60  0  0  1  0            999 V2000
   18.2450  -13.1710   21.5890 N   0  0  0  0  0  0
   18.0280  -11.8220   21.0620 C   0  0  2  0  0  0
   17.4360  -13.6310   22.5680 C   0  0  0  0  0  0
   16.5060  -12.9450   23.0320 O   0  0  0  0  0  0
   16.6090  -11.7290   20.5280 C   0  0  0  0  0  0
   16.2150  -12.7280   19.9260 O   0  0  0  0  0  0
   18.9440  -11.8950   19.8030 C   0  0  0  0  0  0
   17.6570  -15.0120   23.1460 C   0  0  2  0  0  0
   15.9710  -10.5760   20.7540 N   0  0  0  0  0  0
   20.1040  -12.7670   20.3170 C   0  0  0  0  0  0
   16.3900  -15.7830   23.1600 N   0  3  0  0  0  0
   18.1720  -14.9170   24.5950 C   0  0  0  0  0  0
   14.6590  -10.4300   20.1130 C   0  0  0  0  0  0
   19.3760  -13.9390   21.0230 C   0  0  0  0  0  0
   19.5920  -14.3710   24.7440 C   0  0  0  0  0  0
   13.5670  -10.4920   21.1900 C   0  0  0  0  0  0
   20.6910  -14.9640   24.0890 C   0  0  0  0  0  0
   12.7700  -11.6130   21.3270 C   0  0  0  0  0  0
   21.9860  -14.4540   24.2350 C   0  0  0  0  0  0
   11.7790  -11.6630   22.3090 C   0  0  0  0  0  0
   22.1890  -13.3330   25.0460 C   0  0  0  0  0  0
   11.5890  -10.5670   23.1640 C   0  0  0  0  0  0
   21.1010  -12.7410   25.6970 C   0  0  0  0  0  0
   12.4020   -9.4430   23.0150 C   0  0  0  0  0  0
   19.8220  -13.2490   25.5510 C   0  0  0  0  0  0
   13.3860   -9.3970   22.0370 C   0  0  0  0  0  0
   18.3067  -11.0427   21.7738 H   0  0  0  0  0  0
   18.4842  -12.3766   18.9364 H   0  0  0  0  0  0
   19.2817  -10.9072   19.4871 H   0  0  0  0  0  0
   18.3464  -15.6096   22.5539 H   0  0  0  0  0  0
   16.3728   -9.8222   21.2888 H   0  0  0  0  0  0
   20.7586  -13.1073   19.5132 H   0  0  0  0  0  0
   20.7155  -12.2067   21.0275 H   0  0  0  0  0  0
   15.7068  -15.2986   23.7245 H   0  0  0  0  0  0
   16.0415  -15.8761   22.2166 H   0  0  0  0  0  0
   16.5577  -16.7001   23.5485 H   0  0  0  0  0  0
   17.4931  -14.3141   25.2029 H   0  0  0  0  0  0
   18.1811  -15.9054   25.0568 H   0  0  0  0  0  0
   14.6192   -9.4517   19.6322 H   0  0  0  0  0  0
   14.4512  -11.1515   19.3191 H   0  0  0  0  0  0
   20.0447  -14.4069   21.7346 H   0  0  0  0  0  0
   19.0212  -14.6769   20.3014 H   0  0  0  0  0  0
   20.5613  -15.8487   23.4831 H   0  0  0  0  0  0
   22.8242  -14.9230   23.7384 H   0  0  0  0  0  0
   11.1520  -12.5374   22.4052 H   0  0  0  0  0  0
   23.1834  -12.9281   25.1748 H   0  0  0  0  0  0
   21.2655  -11.8770   26.3260 H   0  0  0  0  0  0
   19.0088  -12.7641   26.0735 H   0  0  0  0  0  0
   14.0002   -8.5140   21.9351 H   0  0  0  0  0  0
   10.8205  -10.5894   23.9235 H   0  0  0  0  0  0
   12.9660  -12.7842   20.4106 C   0  0  0  0  0  0
   12.2535  -13.5686   20.6659 H   0  0  0  0  0  0
   12.8059  -12.4695   19.3794 H   0  0  0  0  0  0
   13.9812  -13.1657   20.5205 H   0  0  0  0  0  0
   12.2025   -8.2634   23.9198 C   0  0  0  0  0  0
   12.9190   -7.4832   23.6630 H   0  0  0  0  0  0
   11.1892   -7.8802   23.7991 H   0  0  0  0  0  0
   12.3542   -8.5696   24.9548 H   0  0  0  0  0  0
  1  2  1  0  0  0
  1 14  1  0  0  0
  1  3  1  0  0  0
  2  5  1  0  0  0
  2  7  1  0  0  0
  2 27  1  0  0  0
  3  8  1  0  0  0
  3  4  2  0  0  0
  5  6  2  0  0  0
  5  9  1  0  0  0
  7 10  1  0  0  0
  7 28  1  0  0  0
  7 29  1  0  0  0
  8 11  1  0  0  0
  8 12  1  0  0  0
  8 30  1  0  0  0
  9 13  1  0  0  0
  9 31  1  0  0  0
 10 14  1  0  0  0
 10 32  1  0  0  0
 10 33  1  0  0  0
 11 34  1  0  0  0
 11 35  1  0  0  0
 11 36  1  0  0  0
 12 15  1  0  0  0
 12 37  1  0  0  0
 12 38  1  0  0  0
 13 16  1  0  0  0
 13 39  1  0  0  0
 13 40  1  0  0  0
 14 41  1  0  0  0
 14 42  1  0  0  0
 15 17  1  0  0  0
 15 25  2  0  0  0
 16 18  1  0  0  0
 16 26  2  0  0  0
 17 19  2  0  0  0
 17 43  1  0  0  0
 18 20  2  0  0  0
 18 51  1  0  0  0
 19 21  1  0  0  0
 19 44  1  0  0  0
 20 22  1  0  0  0
 20 45  1  0  0  0
 21 23  2  0  0  0
 21 46  1  0  0  0
 22 24  2  0  0  0
 22 50  1  0  0  0
 23 25  1  0  0  0
 23 47  1  0  0  0
 24 26  1  0  0  0
 24 55  1  0  0  0
 25 48  1  0  0  0
 26 49  1  0  0  0
 51 52  1  0  0  0
 51 53  1  0  0  0
 51 54  1  0  0  0
 55 56  1  0  0  0
 55 57  1  0  0  0
 55 58  1  0  0  0
M  CHG  1  11   1
M  END
> <s_m_entry_id>
670

> <s_m_entry_name>
Thrombin_7a.1

> <s_m_Source_Path>
C:\Users\yujiethinkpad\Desktop\05A\Thrombin

> <s_m_Source_File>
Thrombin_7a.sdf

> <i_m_Source_File_Index>
1

> <i_f3d_flags>
0

> <s_m_job_name>
align_ligands_0

> <r_user_dG.exp>
-8.22

> <r_m_Molecular_weight>
380.51445

> <r_f3d_energy>
13.73031

> <r_f3d_relative_energy>
0.000189999999999912

> <r_phase_Shape_Sim>
0.916411127584675

> <s_m_subgroup_title>
align_ligands_0

> <s_m_subgroupid>
align_ligands_0

> <b_m_subgroup_collapsed>
0

$$$$
