27
                    3D
 Schrodinger Suite 2021-2.
 38 40  0  0  1  0            999 V2000
    3.9422  -49.6018    6.5113 O   0  0  0  0  0  0
    3.0396  -48.7457    6.5580 C   0  0  0  0  0  0
    3.2599  -47.5493    6.8407 O   0  5  0  0  0  0
    1.6618  -49.1493    6.3125 C   0  0  0  0  0  0
   -0.0939  -50.5923    6.3558 C   0  0  0  0  0  0
   -0.9974  -51.6528    6.5222 C   0  0  0  0  0  0
   -2.3697  -51.4228    6.3391 C   0  0  0  0  0  0
   -2.8212  -50.1537    5.9603 C   0  0  0  0  0  0
   -1.9069  -49.1142    5.7690 C   0  0  0  0  0  0
   -0.5353  -49.3014    5.9866 C   0  0  0  0  0  0
    0.5784  -48.4246    5.9313 C   0  0  0  0  0  0
    0.5541  -47.0025    5.5196 C   0  0  0  0  0  0
    0.2806  -46.0493    6.6820 C   0  0  0  0  0  0
   -1.1956  -45.8057    6.9745 C   0  0  0  0  0  0
   -1.9400  -46.7052    7.7535 O   0  0  0  0  0  0
   -3.2266  -46.2928    8.0145 C   0  0  0  0  0  0
   -3.8693  -46.7993    9.1514 C   0  0  0  0  0  0
   -5.1680  -46.3941    9.4988 C   0  0  0  0  0  0
   -5.8484  -45.4585    8.7213 C   0  0  0  0  0  0
   -5.2465  -45.0052    7.5497 C   0  0  0  0  0  0
   -3.9481  -45.4060    7.1960 C   0  0  0  0  0  0
   -0.6405  -52.6310    6.8070 H   0  0  0  0  0  0
   -3.0785  -52.2266    6.4766 H   0  0  0  0  0  0
   -3.8772  -49.9791    5.8068 H   0  0  0  0  0  0
   -2.2691  -48.1397    5.4778 H   0  0  0  0  0  0
   -0.1861  -46.8627    4.7354 H   0  0  0  0  0  0
    1.5041  -46.7365    5.0555 H   0  0  0  0  0  0
    0.6684  -45.0883    6.3434 H   0  0  0  0  0  0
    0.8725  -46.2343    7.5728 H   0  0  0  0  0  0
   -1.6708  -45.6769    6.0038 H   0  0  0  0  0  0
   -1.2477  -44.8774    7.5510 H   0  0  0  0  0  0
   -3.3528  -47.5073    9.7798 H   0  0  0  0  0  0
   -3.5552  -44.9918    6.2823 H   0  0  0  0  0  0
    1.2734  -50.4647    6.4904 N   0  0  0  0  0  0
    1.9427  -51.1703    6.7555 H   0  0  0  0  0  0
   -5.7799  -44.3148    6.9130 H   0  0  0  0  0  0
   -6.8460  -45.1411    8.9875 H   0  0  0  0  0  0
   -5.6611  -46.8220   10.3510 H   0  0  0  0  0  0
  1  2  2  0  0  0
  2  3  1  0  0  0
  2  4  1  0  0  0
  4 11  2  0  0  0
  4 34  1  0  0  0
  5  6  1  0  0  0
  5 10  2  0  0  0
  5 34  1  0  0  0
  6  7  2  0  0  0
  6 22  1  0  0  0
  7  8  1  0  0  0
  7 23  1  0  0  0
  8  9  2  0  0  0
  8 24  1  0  0  0
  9 10  1  0  0  0
  9 25  1  0  0  0
 10 11  1  0  0  0
 11 12  1  0  0  0
 12 26  1  0  0  0
 12 27  1  0  0  0
 12 13  1  0  0  0
 13 14  1  0  0  0
 13 28  1  0  0  0
 13 29  1  0  0  0
 14 15  1  0  0  0
 14 30  1  0  0  0
 14 31  1  0  0  0
 15 16  1  0  0  0
 16 17  1  0  0  0
 16 21  2  0  0  0
 17 18  2  0  0  0
 17 32  1  0  0  0
 18 19  1  0  0  0
 18 38  1  0  0  0
 19 20  2  0  0  0
 19 37  1  0  0  0
 20 21  1  0  0  0
 20 36  1  0  0  0
 21 33  1  0  0  0
 34 35  1  0  0  0
M  CHG  1   3  -1
M  END
> <s_m_entry_id>
401

> <s_m_entry_name>
MCL1_27.1

> <r_m_Molecular_weight>
294.33312

> <s_m_Source_Path>
C:\Users\yujiethinkpad\Desktop\05A\MCL1\original

> <s_m_Source_File>
MCL1_27.sdf

> <r_user_dG.exp>
-6.11639066902356

> <s_fepmapper_entryid>
32

> <i_fepmapper_bias>
0

> <i_fepmapper_affinity>
1

> <r_fepmapper_exp_dG>
-6.11639066902

> <i_fepmapper_unit>
1

> <i_m_Source_File_Index>
1

> <s_m_job_name>
glide-dock_SP_redock_5965

> <s_i_glide_gridfile>
glide-grid_MCL1

> <i_i_glide_lignum>
11

> <i_i_glide_rotatable_bonds>
6

> <r_i_docking_score>
-7.44137553253319

> <r_i_glide_ligand_efficiency>
-0.338244342387872

> <r_i_glide_ligand_efficiency_sa>
-0.947773949765948

> <r_i_glide_ligand_efficiency_ln>
-1.81894361091868

> <r_i_glide_gscore>
-7.44137553253319

> <r_i_glide_lipo>
-4.33656188306498

> <r_i_glide_hbond>
-0.2

> <r_i_glide_metal>
0

> <r_i_glide_rewards>
-1.96930223917542

> <r_i_glide_evdw>
-28.443941116333

> <r_i_glide_ecoul>
-2.28499865531921

> <r_i_glide_erotb>
0.844395278781436

> <r_i_glide_esite>
-0.014959834959693

> <r_i_glide_emodel>
-35.1678833706068

> <r_i_glide_energy>
-30.7289397716522

> <r_i_glide_einternal>
8.27558994293213

> <i_i_glide_confnum>
38

> <i_i_glide_posenum>
161

> <r_i_glide_eff_state_penalty>
0

> <r_glide_shape_similarity>
0.863929390907288

> <s_m_subgroup_title>
glide-dock_SP_redock_5965_lib1

> <s_m_subgroupid>
glide-dock_SP_redock_5965_lib1

> <b_m_subgroup_collapsed>
0

$$$$
