29
                    3D
 Schrodinger Suite 2021-2.
 41 43  0  0  1  0            999 V2000
    3.2448  -47.4146    6.7624 O   0  0  0  0  0  0
    3.0656  -48.6363    6.5945 C   0  0  0  0  0  0
    4.0261  -49.4445    6.6927 O   0  5  0  0  0  0
    1.7050  -49.1515    6.3438 C   0  0  0  0  0  0
    0.0217  -50.7454    6.4407 C   0  0  0  0  0  0
   -0.7878  -51.8773    6.6790 C   0  0  0  0  0  0
   -2.1871  -51.8180    6.4089 C   0  0  0  0  0  0
   -2.7421  -50.6351    5.8834 C   0  0  0  0  0  0
   -1.9027  -49.5410    5.5749 C   0  0  0  0  0  0
   -0.5198  -49.5358    5.9130 C   0  0  0  0  0  0
    0.5398  -48.5366    5.9089 C   0  0  0  0  0  0
    0.3627  -47.0959    5.5549 C   0  0  0  0  0  0
   -0.2801  -46.3149    6.7024 C   0  0  0  0  0  0
   -1.6637  -46.8345    7.1294 C   0  0  0  0  0  0
   -2.4378  -46.1020    8.0748 O   0  0  0  0  0  0
   -3.5884  -45.5185    7.5513 C   0  0  0  0  0  0
   -4.8260  -45.4584    8.2952 C   0  0  0  0  0  0
   -5.9552  -44.8139    7.7605 C   0  0  0  0  0  0
   -5.8910  -44.1986    6.4926 C   0  0  0  0  0  0
   -4.6776  -44.2055    5.7677 C   0  0  0  0  0  0
   -3.5634  -44.9710    6.2508 C   0  0  0  0  0  0
   -0.3591  -52.7762    7.1141 H   0  0  0  0  0  0
   -2.8197  -52.6813    6.5859 H   0  0  0  0  0  0
   -3.8008  -50.5690    5.6672 H   0  0  0  0  0  0
   -2.3508  -48.7056    5.0616 H   0  0  0  0  0  0
   -0.2656  -47.0107    4.6679 H   0  0  0  0  0  0
    1.3167  -46.6297    5.2869 H   0  0  0  0  0  0
   -0.3631  -45.4061    6.2018 H   0  0  0  0  0  0
    0.4091  -46.1983    7.5400 H   0  0  0  0  0  0
   -1.5311  -47.8061    7.5536 H   0  0  0  0  0  0
   -2.2486  -47.0521    6.2419 H   0  0  0  0  0  0
   -2.6989  -45.0002    5.6125 H   0  0  0  0  0  0
    1.3970  -50.4941    6.6054 N   0  0  0  0  0  0
    2.0927  -51.1363    6.9689 H   0  0  0  0  0  0
   -4.5928  -43.7207    4.8108 H   0  0  0  0  0  0
   -6.7423  -43.7008    6.0793 H   0  0  0  0  0  0
   -6.8968  -44.8244    8.2997 H   0  0  0  0  0  0
   -5.5382  -47.4984    9.1377 F   0  0  0  0  0  0
   -5.0301  -46.3224    9.5408 C   0  0  0  0  0  0
   -3.9081  -46.6028   10.2237 F   0  0  0  0  0  0
   -5.9281  -45.7314   10.3507 F   0  0  0  0  0  0
  1  2  2  0  0  0
  2  3  1  0  0  0
  2  4  1  0  0  0
  4 11  2  0  0  0
  4 33  1  0  0  0
  5  6  1  0  0  0
  5 10  2  0  0  0
  5 33  1  0  0  0
  6  7  2  0  0  0
  6 22  1  0  0  0
  7  8  1  0  0  0
  7 23  1  0  0  0
  8  9  2  0  0  0
  8 24  1  0  0  0
  9 10  1  0  0  0
  9 25  1  0  0  0
 10 11  1  0  0  0
 11 12  1  0  0  0
 12 26  1  0  0  0
 12 27  1  0  0  0
 12 13  1  0  0  0
 13 14  1  0  0  0
 13 28  1  0  0  0
 13 29  1  0  0  0
 14 15  1  0  0  0
 14 30  1  0  0  0
 14 31  1  0  0  0
 15 16  1  0  0  0
 16 17  1  0  0  0
 16 21  2  0  0  0
 17 18  2  0  0  0
 17 39  1  0  0  0
 18 19  1  0  0  0
 18 37  1  0  0  0
 19 20  2  0  0  0
 19 36  1  0  0  0
 20 21  1  0  0  0
 20 35  1  0  0  0
 21 32  1  0  0  0
 33 34  1  0  0  0
 38 39  1  0  0  0
 39 40  1  0  0  0
 39 41  1  0  0  0
M  CHG  1   3  -1
M  END
> <s_m_entry_id>
391

> <s_m_entry_name>
MCL1_29.1

> <r_m_Molecular_weight>
362.3315

> <s_m_Source_Path>
C:\Users\yujiethinkpad\Desktop\05A\MCL1\original

> <s_m_Source_File>
MCL1_29.sdf

> <r_user_dG.exp>
-6.93940556519089

> <s_fepmapper_entryid>
22

> <i_fepmapper_bias>
0

> <i_fepmapper_affinity>
1

> <r_fepmapper_exp_dG>
-6.93940556519

> <i_fepmapper_unit>
1

> <i_m_Source_File_Index>
1

> <s_m_job_name>
glide-dock_SP_redock_5965

> <s_i_glide_gridfile>
glide-grid_MCL1

> <i_i_glide_lignum>
13

> <i_i_glide_rotatable_bonds>
7

> <r_i_docking_score>
-8.1180927093274

> <r_i_glide_ligand_efficiency>
-0.312234334974131

> <r_i_glide_ligand_efficiency_sa>
-0.924992988778081

> <r_i_glide_ligand_efficiency_ln>
-1.9065074351507

> <r_i_glide_gscore>
-8.1180927093274

> <r_i_glide_lipo>
-4.29559605008766

> <r_i_glide_hbond>
-0.2

> <r_i_glide_metal>
0

> <r_i_glide_rewards>
-2.72613435351381

> <r_i_glide_evdw>
-25.7133884429932

> <r_i_glide_ecoul>
-2.13481283187866

> <r_i_glide_erotb>
0.731300272525245

> <r_i_glide_esite>
-0.0217712313197254

> <r_i_glide_emodel>
-35.3755519587432

> <r_i_glide_energy>
-27.8482012748718

> <r_i_glide_einternal>
4.44140338897705

> <i_i_glide_confnum>
8

> <i_i_glide_posenum>
283

> <r_i_glide_eff_state_penalty>
0

> <r_glide_shape_similarity>
0.895231187343597

> <s_m_subgroup_title>
glide-dock_SP_redock_5965_lib1

> <s_m_subgroupid>
glide-dock_SP_redock_5965_lib1

> <b_m_subgroup_collapsed>
0

$$$$
