34
                    3D
 Schrodinger Suite 2021-2.
 41 43  0  0  1  0            999 V2000
    3.9977  -49.6439    6.6081 O   0  0  0  0  0  0
    3.0757  -48.7972    6.5881 C   0  0  0  0  0  0
    3.2599  -47.5801    6.8256 O   0  5  0  0  0  0
    1.6908  -49.2237    6.3116 C   0  0  0  0  0  0
   -0.0999  -50.6482    6.3707 C   0  0  0  0  0  0
   -1.0196  -51.7044    6.5574 C   0  0  0  0  0  0
   -2.4006  -51.4731    6.3559 C   0  0  0  0  0  0
   -2.8516  -50.2071    5.9255 C   0  0  0  0  0  0
   -1.9200  -49.1777    5.6796 C   0  0  0  0  0  0
   -0.5342  -49.3555    5.9391 C   0  0  0  0  0  0
    0.6225  -48.5054    5.8370 C   0  0  0  0  0  0
    0.6772  -47.1133    5.2973 C   0  0  0  0  0  0
    0.6075  -46.1013    6.4297 C   0  0  0  0  0  0
   -0.8266  -45.8017    6.8125 C   0  0  0  0  0  0
   -1.6001  -46.8480    7.2720 O   0  0  0  0  0  0
   -2.8346  -46.4519    7.7027 C   0  0  0  0  0  0
   -3.2801  -47.1776    8.8055 C   0  0  0  0  0  0
   -4.4319  -46.8070    9.4636 C   0  0  0  0  0  0
   -5.2332  -45.7672    8.9502 C   0  0  0  0  0  0
   -4.8822  -45.0901    7.7573 C   0  0  0  0  0  0
   -3.6420  -45.4061    7.1509 C   0  0  0  0  0  0
   -0.6722  -52.6725    6.8844 H   0  0  0  0  0  0
   -3.1112  -52.2709    6.5201 H   0  0  0  0  0  0
   -3.9040  -50.0353    5.7509 H   0  0  0  0  0  0
   -2.2729  -48.2241    5.3158 H   0  0  0  0  0  0
   -0.1240  -46.9588    4.5768 H   0  0  0  0  0  0
    1.6055  -46.9692    4.7430 H   0  0  0  0  0  0
    1.0815  -45.1844    6.0856 H   0  0  0  0  0  0
    1.1719  -46.4145    7.3063 H   0  0  0  0  0  0
   -1.3452  -45.4136    5.9491 H   0  0  0  0  0  0
   -0.8213  -45.0156    7.5720 H   0  0  0  0  0  0
   -2.7402  -48.0114    9.1997 H   0  0  0  0  0  0
   -3.3464  -44.8547    6.2712 H   0  0  0  0  0  0
    1.2784  -50.5360    6.5454 N   0  0  0  0  0  0
    1.9275  -51.2469    6.8675 H   0  0  0  0  0  0
   -5.5149  -44.3124    7.3542 H   0  0  0  0  0  0
   -4.6813  -47.3656   10.3509 H   0  0  0  0  0  0
   -6.4849  -45.4557    9.7177 C   0  0  0  0  0  0
   -6.2945  -44.5957   10.6949 F   0  0  0  0  0  0
   -6.7402  -46.5993   10.3490 F   0  0  0  0  0  0
   -7.4706  -45.0078    8.9130 F   0  0  0  0  0  0
  1  2  2  0  0  0
  2  3  1  0  0  0
  2  4  1  0  0  0
  4 11  2  0  0  0
  4 34  1  0  0  0
  5  6  1  0  0  0
  5 10  2  0  0  0
  5 34  1  0  0  0
  6  7  2  0  0  0
  6 22  1  0  0  0
  7  8  1  0  0  0
  7 23  1  0  0  0
  8  9  2  0  0  0
  8 24  1  0  0  0
  9 10  1  0  0  0
  9 25  1  0  0  0
 10 11  1  0  0  0
 11 12  1  0  0  0
 12 26  1  0  0  0
 12 27  1  0  0  0
 12 13  1  0  0  0
 13 14  1  0  0  0
 13 28  1  0  0  0
 13 29  1  0  0  0
 14 15  1  0  0  0
 14 30  1  0  0  0
 14 31  1  0  0  0
 15 16  1  0  0  0
 16 17  1  0  0  0
 16 21  2  0  0  0
 17 18  2  0  0  0
 17 32  1  0  0  0
 18 19  1  0  0  0
 18 37  1  0  0  0
 19 20  2  0  0  0
 19 38  1  0  0  0
 20 21  1  0  0  0
 20 36  1  0  0  0
 21 33  1  0  0  0
 34 35  1  0  0  0
 38 39  1  0  0  0
 38 40  1  0  0  0
 38 41  1  0  0  0
M  CHG  1   3  -1
M  END
> <s_m_entry_id>
396

> <s_m_entry_name>
MCL1_34.1

> <r_m_Molecular_weight>
362.3315

> <s_m_Source_Path>
C:\Users\yujiethinkpad\Desktop\05A\MCL1\original

> <s_m_Source_File>
MCL1_34.sdf

> <r_user_dG.exp>
-6.86919156414505

> <s_fepmapper_entryid>
42

> <i_fepmapper_bias>
0

> <i_fepmapper_affinity>
1

> <r_fepmapper_exp_dG>
-6.86919156415

> <i_fepmapper_unit>
1

> <i_m_Source_File_Index>
1

> <s_m_job_name>
glide-dock_SP_redock_5965

> <s_i_glide_gridfile>
glide-grid_MCL1

> <i_i_glide_lignum>
18

> <i_i_glide_rotatable_bonds>
7

> <r_i_docking_score>
-7.79081410662477

> <r_i_glide_ligand_efficiency>
-0.299646696408645

> <r_i_glide_ligand_efficiency_sa>
-0.887702159057795

> <r_i_glide_ligand_efficiency_ln>
-1.82964712919467

> <r_i_glide_gscore>
-7.79081410662477

> <r_i_glide_lipo>
-4.55955861378067

> <r_i_glide_hbond>
-0.2

> <r_i_glide_metal>
0

> <r_i_glide_rewards>
-2.38291107500587

> <r_i_glide_evdw>
-22.300666809082

> <r_i_glide_ecoul>
-1.64918994903564

> <r_i_glide_erotb>
0.731300272525245

> <r_i_glide_esite>
-0.0172328575540314

> <r_i_glide_emodel>
-23.2495159506337

> <r_i_glide_energy>
-23.9498567581177

> <r_i_glide_einternal>
6.96657943725586

> <i_i_glide_confnum>
116

> <i_i_glide_posenum>
206

> <r_i_glide_eff_state_penalty>
0

> <r_glide_shape_similarity>
0.877007901668549

> <s_m_subgroup_title>
glide-dock_SP_redock_5965_lib1

> <s_m_subgroupid>
glide-dock_SP_redock_5965_lib1

> <b_m_subgroup_collapsed>
0

$$$$
