35
                    3D
 Schrodinger Suite 2021-2.
 41 43  0  0  1  0            999 V2000
    3.2600  -47.6004    6.8574 O   0  0  0  0  0  0
    3.0498  -48.7973    6.5780 C   0  0  0  0  0  0
    3.9520  -49.6542    6.5440 O   0  5  0  0  0  0
    1.6763  -49.1948    6.3173 C   0  0  0  0  0  0
   -0.1005  -50.6125    6.3559 C   0  0  0  0  0  0
   -1.0177  -51.6622    6.5261 C   0  0  0  0  0  0
   -2.3813  -51.4122    6.3383 C   0  0  0  0  0  0
   -2.8176  -50.1414    5.9574 C   0  0  0  0  0  0
   -1.8885  -49.1163    5.7537 C   0  0  0  0  0  0
   -0.5224  -49.3179    5.9788 C   0  0  0  0  0  0
    0.6087  -48.4624    5.9040 C   0  0  0  0  0  0
    0.6211  -47.0437    5.4727 C   0  0  0  0  0  0
    0.4164  -46.0939    6.6405 C   0  0  0  0  0  0
   -1.0435  -45.8058    6.9170 C   0  0  0  0  0  0
   -1.8076  -46.7562    7.5955 O   0  0  0  0  0  0
   -3.0621  -46.3239    7.9211 C   0  0  0  0  0  0
   -3.8166  -45.4068    7.1521 C   0  0  0  0  0  0
   -5.1021  -45.0259    7.5527 C   0  0  0  0  0  0
   -5.6130  -45.5166    8.7549 C   0  0  0  0  0  0
   -4.9108  -46.4808    9.4775 C   0  0  0  0  0  0
   -3.6481  -46.8929    9.0477 C   0  0  0  0  0  0
   -0.6721  -52.6438    6.8119 H   0  0  0  0  0  0
   -3.1038  -52.2036    6.4868 H   0  0  0  0  0  0
   -3.8711  -49.9486    5.8028 H   0  0  0  0  0  0
   -2.2402  -48.1365    5.4456 H   0  0  0  0  0  0
   -0.1398  -46.8836    4.7116 H   0  0  0  0  0  0
    1.5666  -46.8122    4.9869 H   0  0  0  0  0  0
    0.8538  -45.1439    6.3330 H   0  0  0  0  0  0
    0.9705  -46.3745    7.5390 H   0  0  0  0  0  0
   -1.5139  -45.5973    5.9574 H   0  0  0  0  0  0
   -1.0780  -44.9140    7.5511 H   0  0  0  0  0  0
   -3.4521  -45.0110    6.2112 H   0  0  0  0  0  0
   -3.1135  -47.6628    9.5842 H   0  0  0  0  0  0
    1.2679  -50.5000    6.5031 N   0  0  0  0  0  0
    1.9185  -51.2128    6.7876 H   0  0  0  0  0  0
   -5.3552  -46.9290   10.3518 H   0  0  0  0  0  0
   -7.1330  -45.0097    9.3307 Cl  0  0  0  0  0  0
   -5.9244  -44.1958    6.6110 C   0  0  0  0  0  0
   -5.3087  -43.3767    6.2397 H   0  0  0  0  0  0
   -6.8216  -43.8011    7.0842 H   0  0  0  0  0  0
   -6.2530  -44.7782    5.7582 H   0  0  0  0  0  0
  1  2  2  0  0  0
  2  3  1  0  0  0
  2  4  1  0  0  0
  4 11  2  0  0  0
  4 34  1  0  0  0
  5  6  1  0  0  0
  5 10  2  0  0  0
  5 34  1  0  0  0
  6  7  2  0  0  0
  6 22  1  0  0  0
  7  8  1  0  0  0
  7 23  1  0  0  0
  8  9  2  0  0  0
  8 24  1  0  0  0
  9 10  1  0  0  0
  9 25  1  0  0  0
 10 11  1  0  0  0
 11 12  1  0  0  0
 12 26  1  0  0  0
 12 27  1  0  0  0
 12 13  1  0  0  0
 13 14  1  0  0  0
 13 28  1  0  0  0
 13 29  1  0  0  0
 14 15  1  0  0  0
 14 30  1  0  0  0
 14 31  1  0  0  0
 15 16  1  0  0  0
 16 17  1  0  0  0
 16 21  2  0  0  0
 17 18  2  0  0  0
 17 32  1  0  0  0
 18 19  1  0  0  0
 18 38  1  0  0  0
 19 20  2  0  0  0
 19 37  1  0  0  0
 20 21  1  0  0  0
 20 36  1  0  0  0
 21 33  1  0  0  0
 34 35  1  0  0  0
 38 39  1  0  0  0
 38 40  1  0  0  0
 38 41  1  0  0  0
M  CHG  1   3  -1
M  END
> <s_m_entry_id>
397

> <s_m_entry_name>
MCL1_35.1

> <r_m_Molecular_weight>
342.80524

> <s_m_Source_Path>
C:\Users\yujiethinkpad\Desktop\05A\MCL1\original

> <s_m_Source_File>
MCL1_35.sdf

> <r_user_dG.exp>
-8.81264617449463

> <s_fepmapper_entryid>
6

> <i_fepmapper_bias>
0

> <i_fepmapper_affinity>
1

> <r_fepmapper_exp_dG>
-8.81264617449

> <i_fepmapper_unit>
1

> <i_m_Source_File_Index>
1

> <s_m_job_name>
glide-dock_SP_redock_5965

> <s_i_glide_gridfile>
glide-grid_MCL1

> <i_i_glide_lignum>
19

> <i_i_glide_rotatable_bonds>
6

> <r_i_docking_score>
-7.73404625318863

> <r_i_glide_ligand_efficiency>
-0.322251927216193

> <r_i_glide_ligand_efficiency_sa>
-0.929535406131873

> <r_i_glide_ligand_efficiency_ln>
-1.85111216064551

> <r_i_glide_gscore>
-7.73404625318863

> <r_i_glide_lipo>
-4.72750490209951

> <r_i_glide_hbond>
-0.2

> <r_i_glide_metal>
0

> <r_i_glide_rewards>
-1.76454526919395

> <r_i_glide_evdw>
-30.1324081420898

> <r_i_glide_ecoul>
-2.18570375442505

> <r_i_glide_erotb>
0.807043462423793

> <r_i_glide_esite>
-0.0145635740507154

> <r_i_glide_emodel>
-40.0342873085169

> <r_i_glide_energy>
-32.3181118965149

> <r_i_glide_einternal>
9.2234582901001

> <i_i_glide_confnum>
173

> <i_i_glide_posenum>
75

> <r_i_glide_eff_state_penalty>
0

> <r_glide_shape_similarity>
0.913154780864716

> <s_m_subgroup_title>
glide-dock_SP_redock_5965_lib1

> <s_m_subgroupid>
glide-dock_SP_redock_5965_lib1

> <b_m_subgroup_collapsed>
0

$$$$
