39
                    3D
 Schrodinger Suite 2021-2.
 48 51  0  0  1  0            999 V2000
    3.9405  -50.9338    9.0848 O   0  0  0  0  0  0
    3.5531  -50.1629    8.1712 C   0  0  0  0  0  0
    4.2046  -49.1493    7.8051 O   0  5  0  0  0  0
    2.2367  -50.4210    7.5259 C   0  0  0  0  0  0
    0.1548  -51.3811    7.3763 C   0  0  0  0  0  0
   -1.0555  -52.0899    7.5700 C   0  0  0  0  0  0
   -2.1816  -51.7875    6.7712 C   0  0  0  0  0  0
   -2.0710  -50.8189    5.7582 C   0  0  0  0  0  0
   -0.8364  -50.1689    5.5430 C   0  0  0  0  0  0
    0.2896  -50.3827    6.3645 C   0  0  0  0  0  0
    1.6197  -49.8140    6.4643 C   0  0  0  0  0  0
    2.2399  -48.7452    5.6356 C   0  0  0  0  0  0
    2.1646  -47.3466    6.2659 C   0  0  0  0  0  0
    1.3125  -46.4224    5.3786 C   0  0  0  0  0  0
    0.0331  -47.0035    5.1654 O   0  0  0  0  0  0
   -0.9378  -46.8160    6.1248 C   0  0  0  0  0  0
   -0.8339  -45.9328    7.2261 C   0  0  0  0  0  0
   -1.9501  -45.6163    8.0178 C   0  0  0  0  0  0
   -3.1617  -46.2917    7.8050 C   0  0  0  0  0  0
   -3.1931  -47.3405    6.8722 C   0  0  0  0  0  0
   -2.1479  -47.5089    5.9561 C   0  0  0  0  0  0
   -1.1260  -52.8350    8.3492 H   0  0  0  0  0  0
   -3.1168  -52.3053    6.9285 H   0  0  0  0  0  0
   -2.9243  -50.5883    5.1372 H   0  0  0  0  0  0
   -0.7553  -49.4530    4.7513 H   0  0  0  0  0  0
    3.2472  -48.9999    5.2966 H   0  0  0  0  0  0
    1.6577  -48.7315    4.7504 H   0  0  0  0  0  0
    1.7492  -47.3932    7.2716 H   0  0  0  0  0  0
    3.1647  -46.9304    6.3765 H   0  0  0  0  0  0
    1.2591  -45.4057    5.7540 H   0  0  0  0  0  0
    1.7744  -46.3287    4.4030 H   0  0  0  0  0  0
    0.0600  -45.4074    7.4235 H   0  0  0  0  0  0
   -2.3132  -48.1417    5.1016 H   0  0  0  0  0  0
    1.3853  -51.4058    8.0260 N   0  0  0  0  0  0
    1.6624  -51.9772    8.8182 H   0  0  0  0  0  0
   -4.1053  -47.9000    6.7520 H   0  0  0  0  0  0
   -1.8828  -44.8182    8.7407 H   0  0  0  0  0  0
   -6.9947  -45.0056    9.1767 C   0  0  0  0  0  0
   -6.2331  -45.8795    9.9817 C   0  0  0  0  0  0
   -4.9609  -46.3151    9.5590 C   0  0  0  0  0  0
   -4.4375  -45.8421    8.3437 C   0  0  0  0  0  0
   -5.2065  -44.9694    7.5451 C   0  0  0  0  0  0
   -6.4879  -44.5577    7.9450 C   0  0  0  0  0  0
   -7.9680  -44.6764    9.5047 H   0  0  0  0  0  0
   -6.6354  -46.2200   10.9203 H   0  0  0  0  0  0
   -4.3888  -47.0005   10.1696 H   0  0  0  0  0  0
   -4.8115  -44.6123    6.6035 H   0  0  0  0  0  0
   -7.0704  -43.8942    7.3218 H   0  0  0  0  0  0
  1  2  2  0  0  0
  2  3  1  0  0  0
  2  4  1  0  0  0
  4 11  2  0  0  0
  4 34  1  0  0  0
  5  6  1  0  0  0
  5 10  2  0  0  0
  5 34  1  0  0  0
  6  7  2  0  0  0
  6 22  1  0  0  0
  7  8  1  0  0  0
  7 23  1  0  0  0
  8  9  2  0  0  0
  8 24  1  0  0  0
  9 10  1  0  0  0
  9 25  1  0  0  0
 10 11  1  0  0  0
 11 12  1  0  0  0
 12 26  1  0  0  0
 12 27  1  0  0  0
 12 13  1  0  0  0
 13 14  1  0  0  0
 13 28  1  0  0  0
 13 29  1  0  0  0
 14 15  1  0  0  0
 14 30  1  0  0  0
 14 31  1  0  0  0
 15 16  1  0  0  0
 16 17  1  0  0  0
 16 21  2  0  0  0
 17 18  2  0  0  0
 17 32  1  0  0  0
 18 19  1  0  0  0
 18 37  1  0  0  0
 19 20  2  0  0  0
 19 41  1  0  0  0
 20 21  1  0  0  0
 20 36  1  0  0  0
 21 33  1  0  0  0
 34 35  1  0  0  0
 38 39  2  0  0  0
 38 43  1  0  0  0
 38 44  1  0  0  0
 39 40  1  0  0  0
 39 45  1  0  0  0
 40 41  2  0  0  0
 40 46  1  0  0  0
 41 42  1  0  0  0
 42 43  2  0  0  0
 42 47  1  0  0  0
 43 48  1  0  0  0
M  CHG  1   3  -1
M  END
> <s_m_entry_id>
377

> <s_m_entry_name>
MCL1_39.1

> <r_m_Molecular_weight>
370.4319

> <s_m_Source_Path>
C:\Users\yujiethinkpad\Desktop\05A\MCL1\original

> <s_m_Source_File>
MCL1_39.sdf

> <r_user_dG.exp>
-7.02680029426089

> <s_fepmapper_entryid>
16

> <i_fepmapper_bias>
0

> <i_fepmapper_affinity>
1

> <r_fepmapper_exp_dG>
-7.02680029426

> <i_fepmapper_unit>
1

> <i_m_Source_File_Index>
1

> <s_m_job_name>
glide-dock_SP_redock_5965

> <s_i_glide_gridfile>
glide-grid_MCL1

> <i_i_glide_lignum>
23

> <i_i_glide_rotatable_bonds>
7

> <r_i_docking_score>
-8.53034013802545

> <r_i_glide_ligand_efficiency>
-0.30465500492948

> <r_i_glide_ligand_efficiency_sa>
-0.925112027168031

> <r_i_glide_ligand_efficiency_ln>
-1.96905296552597

> <r_i_glide_gscore>
-8.53034013802545

> <r_i_glide_lipo>
-5.92575765070166

> <r_i_glide_hbond>
-0.097331001901457

> <r_i_glide_metal>
0

> <r_i_glide_rewards>
-1.78259517483093

> <r_i_glide_evdw>
-32.8039665222168

> <r_i_glide_ecoul>
0.492116868495941

> <r_i_glide_erotb>
0.843599049903382

> <r_i_glide_esite>
-0.00187456465833786

> <r_i_glide_emodel>
-22.3819415501147

> <r_i_glide_energy>
-32.3118496537209

> <r_i_glide_einternal>
6.52015495300293

> <i_i_glide_confnum>
100

> <i_i_glide_posenum>
294

> <r_i_glide_eff_state_penalty>
0

> <r_glide_shape_similarity>
0.705832898616791

> <s_m_subgroup_title>
glide-dock_SP_redock_5965_lib1

> <s_m_subgroupid>
glide-dock_SP_redock_5965_lib1

> <b_m_subgroup_collapsed>
0

$$$$
