42
                    3D
 Schrodinger Suite 2021-2.
 44 47  0  0  1  0            999 V2000
    3.2589  -47.4890    6.8132 O   0  0  0  0  0  0
    3.0388  -48.6979    6.5569 C   0  0  0  0  0  0
    3.9509  -49.5579    6.5438 O   0  5  0  0  0  0
    1.6449  -49.1140    6.3078 C   0  0  0  0  0  0
   -0.1107  -50.5968    6.3607 C   0  0  0  0  0  0
   -1.0077  -51.6758    6.5395 C   0  0  0  0  0  0
   -2.3947  -51.4671    6.3530 C   0  0  0  0  0  0
   -2.8747  -50.1955    5.9618 C   0  0  0  0  0  0
   -1.9714  -49.1281    5.7600 C   0  0  0  0  0  0
   -0.5804  -49.2997    5.9772 C   0  0  0  0  0  0
    0.5351  -48.3984    5.9164 C   0  0  0  0  0  0
    0.4539  -46.9612    5.4836 C   0  0  0  0  0  0
    0.2945  -45.9941    6.6656 C   0  0  0  0  0  0
   -1.0154  -46.0284    7.4947 C   0  0  0  0  0  0
   -2.2286  -45.7477    6.8061 O   0  0  0  0  0  0
   -3.3874  -45.7921    7.5703 C   0  0  0  0  0  0
   -5.7809  -45.7756    9.1508 C   0  0  0  0  0  0
   -4.7036  -46.6012    9.5089 C   0  0  0  0  0  0
   -3.5247  -46.6026    8.7372 C   0  0  0  0  0  0
   -0.6394  -52.6435    6.8486 H   0  0  0  0  0  0
   -3.0886  -52.2824    6.5018 H   0  0  0  0  0  0
   -3.9345  -50.0403    5.8053 H   0  0  0  0  0  0
   -2.3516  -48.1564    5.4807 H   0  0  0  0  0  0
    1.3593  -46.6980    4.9346 H   0  0  0  0  0  0
   -0.3544  -46.8348    4.7655 H   0  0  0  0  0  0
    1.1183  -46.1843    7.3542 H   0  0  0  0  0  0
    0.4643  -45.0069    6.2768 H   0  0  0  0  0  0
   -1.1412  -47.0074    7.8956 H   0  0  0  0  0  0
   -0.9116  -45.3559    8.3480 H   0  0  0  0  0  0
   -2.7460  -47.2552    9.0878 H   0  0  0  0  0  0
   -5.7070  -45.0327    7.9507 C   0  0  0  0  0  0
   -4.5132  -45.0167    7.1520 C   0  0  0  0  0  0
   -4.4781  -44.2396    5.9496 C   0  0  0  0  0  0
   -5.6780  -43.6719    5.4570 C   0  0  0  0  0  0
   -6.8824  -43.8061    6.1935 C   0  0  0  0  0  0
   -6.8857  -44.4117    7.4733 C   0  0  0  0  0  0
   -3.5909  -44.2057    5.3317 H   0  0  0  0  0  0
   -5.6778  -43.1667    4.5036 H   0  0  0  0  0  0
   -7.7940  -43.3775    5.8007 H   0  0  0  0  0  0
   -7.8090  -44.4661    8.0306 H   0  0  0  0  0  0
   -4.7819  -47.2625   10.3514 H   0  0  0  0  0  0
   -6.6865  -45.7965    9.7418 H   0  0  0  0  0  0
    1.2669  -50.4450    6.5104 N   0  0  0  0  0  0
    1.9432  -51.1512    6.7890 H   0  0  0  0  0  0
  1  2  2  0  0  0
  2  3  1  0  0  0
  2  4  1  0  0  0
  4 11  2  0  0  0
  4 43  1  0  0  0
  5  6  1  0  0  0
  5 10  2  0  0  0
  5 43  1  0  0  0
  6  7  2  0  0  0
  6 20  1  0  0  0
  7  8  1  0  0  0
  7 21  1  0  0  0
  8  9  2  0  0  0
  8 22  1  0  0  0
  9 10  1  0  0  0
  9 23  1  0  0  0
 10 11  1  0  0  0
 11 12  1  0  0  0
 12 24  1  0  0  0
 12 25  1  0  0  0
 12 13  1  0  0  0
 13 14  1  0  0  0
 13 26  1  0  0  0
 13 27  1  0  0  0
 14 15  1  0  0  0
 14 28  1  0  0  0
 14 29  1  0  0  0
 15 16  1  0  0  0
 16 19  2  0  0  0
 16 32  1  0  0  0
 17 18  2  0  0  0
 17 31  1  0  0  0
 17 42  1  0  0  0
 18 19  1  0  0  0
 18 41  1  0  0  0
 19 30  1  0  0  0
 31 32  2  0  0  0
 31 36  1  0  0  0
 32 33  1  0  0  0
 33 34  2  0  0  0
 33 37  1  0  0  0
 34 35  1  0  0  0
 34 38  1  0  0  0
 35 36  2  0  0  0
 35 39  1  0  0  0
 36 40  1  0  0  0
 43 44  1  0  0  0
M  CHG  1   3  -1
M  END
> <s_m_entry_id>
366

> <s_m_entry_name>
MCL1_42.1

> <r_m_Molecular_weight>
344.39366

> <s_m_Source_Path>
C:\Users\yujiethinkpad\Desktop\05A\MCL1\original

> <s_m_Source_File>
MCL1_42.sdf

> <r_user_dG.exp>
-8.89674735927531

> <s_fepmapper_entryid>
40

> <i_fepmapper_bias>
0

> <i_fepmapper_affinity>
1

> <r_fepmapper_exp_dG>
-8.89674735928

> <i_fepmapper_unit>
1

> <i_m_Source_File_Index>
1

> <s_m_job_name>
glide-dock_SP_redock_5965

> <s_i_glide_gridfile>
glide-grid_MCL1

> <i_i_glide_lignum>
26

> <i_i_glide_rotatable_bonds>
6

> <r_i_docking_score>
-9.03658275177054

> <r_i_glide_ligand_efficiency>
-0.347560875068098

> <r_i_glide_ligand_efficiency_sa>
-1.02964772480323

> <r_i_glide_ligand_efficiency_ln>
-2.12221180780682

> <r_i_glide_gscore>
-9.03658275177054

> <r_i_glide_lipo>
-5.52670478880549

> <r_i_glide_hbond>
-0.2

> <r_i_glide_metal>
0

> <r_i_glide_rewards>
-1.9610235

> <r_i_glide_evdw>
-30.7165508270264

> <r_i_glide_ecoul>
-2.91311001777649

> <r_i_glide_erotb>
0.640363311436548

> <r_i_glide_esite>
-0.0164237303838056

> <r_i_glide_emodel>
-42.7102807207291

> <r_i_glide_energy>
-33.6296608448029

> <r_i_glide_einternal>
3.82033109664917

> <i_i_glide_confnum>
72

> <i_i_glide_posenum>
77

> <r_i_glide_eff_state_penalty>
0

> <r_glide_shape_similarity>
0.884232044219971

> <s_m_subgroup_title>
glide-dock_SP_redock_5965_lib1

> <s_m_subgroupid>
glide-dock_SP_redock_5965_lib1

> <b_m_subgroup_collapsed>
0

$$$$
