45
                    3D
 Schrodinger Suite 2021-2.
 48 51  0  0  1  0            999 V2000
    3.2579  -47.5187    6.8122 O   0  0  0  0  0  0
    3.0517  -48.7295    6.5477 C   0  0  0  0  0  0
    3.9725  -49.5783    6.5172 O   0  5  0  0  0  0
    1.6558  -49.1595    6.3076 C   0  0  0  0  0  0
   -0.0989  -50.6454    6.3682 C   0  0  0  0  0  0
   -0.9916  -51.7296    6.5336 C   0  0  0  0  0  0
   -2.3812  -51.5248    6.3556 C   0  0  0  0  0  0
   -2.8691  -50.2499    5.9967 C   0  0  0  0  0  0
   -1.9708  -49.1816    5.7965 C   0  0  0  0  0  0
   -0.5778  -49.3462    6.0105 C   0  0  0  0  0  0
    0.5366  -48.4543    5.9326 C   0  0  0  0  0  0
    0.4551  -47.0319    5.4944 C   0  0  0  0  0  0
    0.2466  -46.0673    6.6689 C   0  0  0  0  0  0
   -1.1382  -46.0045    7.3725 C   0  0  0  0  0  0
   -2.1943  -45.9649    6.4243 O   0  0  0  0  0  0
   -3.4190  -45.3990    6.7329 C   0  0  0  0  0  0
   -6.0091  -44.2135    6.9047 C   0  0  0  0  0  0
   -5.2066  -43.9803    5.7745 C   0  0  0  0  0  0
   -3.9440  -44.6040    5.6851 C   0  0  0  0  0  0
   -0.6136  -52.7011    6.8085 H   0  0  0  0  0  0
   -3.0687  -52.3475    6.4886 H   0  0  0  0  0  0
   -3.9299  -50.0951    5.8487 H   0  0  0  0  0  0
   -2.3593  -48.2204    5.4978 H   0  0  0  0  0  0
    1.3740  -46.7642    4.9703 H   0  0  0  0  0  0
   -0.3441  -46.9106    4.7586 H   0  0  0  0  0  0
    1.0300  -46.2021    7.4121 H   0  0  0  0  0  0
    0.4598  -45.1489    6.1823 H   0  0  0  0  0  0
   -1.2479  -46.9006    7.9479 H   0  0  0  0  0  0
   -1.1864  -45.1544    8.0565 H   0  0  0  0  0  0
   -3.3782  -44.4719    4.7727 H   0  0  0  0  0  0
   -5.5394  -45.0314    7.9554 C   0  0  0  0  0  0
   -4.2389  -45.6477    7.8793 C   0  0  0  0  0  0
   -3.8180  -46.6639    8.9330 C   0  0  0  0  0  0
   -5.0234  -47.2339    9.7049 C   0  0  0  0  0  0
   -5.9417  -46.1079   10.2310 C   0  0  0  0  0  0
   -6.5384  -45.2874    9.0832 C   0  0  0  0  0  0
   -5.5653  -43.3672    4.9593 H   0  0  0  0  0  0
   -6.9979  -43.7816    6.9528 H   0  0  0  0  0  0
   -3.3133  -47.4952    8.4423 H   0  0  0  0  0  0
   -3.0991  -46.2180    9.6160 H   0  0  0  0  0  0
   -4.6664  -47.8869   10.4966 H   0  0  0  0  0  0
   -5.6109  -47.8679    9.0361 H   0  0  0  0  0  0
   -5.3675  -45.4175   10.8495 H   0  0  0  0  0  0
   -6.7379  -46.5148   10.8507 H   0  0  0  0  0  0
   -7.0007  -44.3655    9.4451 H   0  0  0  0  0  0
   -7.3697  -45.8147    8.6330 H   0  0  0  0  0  0
    1.2833  -50.4968    6.4937 N   0  0  0  0  0  0
    1.9649  -51.2039    6.7505 H   0  0  0  0  0  0
  1  2  2  0  0  0
  2  3  1  0  0  0
  2  4  1  0  0  0
  4 11  2  0  0  0
  4 47  1  0  0  0
  5  6  1  0  0  0
  5 10  2  0  0  0
  5 47  1  0  0  0
  6  7  2  0  0  0
  6 20  1  0  0  0
  7  8  1  0  0  0
  7 21  1  0  0  0
  8  9  2  0  0  0
  8 22  1  0  0  0
  9 10  1  0  0  0
  9 23  1  0  0  0
 10 11  1  0  0  0
 11 12  1  0  0  0
 12 24  1  0  0  0
 12 25  1  0  0  0
 12 13  1  0  0  0
 13 14  1  0  0  0
 13 26  1  0  0  0
 13 27  1  0  0  0
 14 15  1  0  0  0
 14 28  1  0  0  0
 14 29  1  0  0  0
 15 16  1  0  0  0
 16 19  2  0  0  0
 16 32  1  0  0  0
 17 18  2  0  0  0
 17 31  1  0  0  0
 17 38  1  0  0  0
 18 19  1  0  0  0
 18 37  1  0  0  0
 19 30  1  0  0  0
 31 32  2  0  0  0
 31 36  1  0  0  0
 32 33  1  0  0  0
 33 34  1  0  0  0
 33 39  1  0  0  0
 33 40  1  0  0  0
 34 35  1  0  0  0
 34 41  1  0  0  0
 34 42  1  0  0  0
 35 36  1  0  0  0
 35 43  1  0  0  0
 35 44  1  0  0  0
 36 45  1  0  0  0
 36 46  1  0  0  0
 47 48  1  0  0  0
M  CHG  1   3  -1
M  END
> <s_m_entry_id>
370

> <s_m_entry_name>
MCL1_45.1

> <r_m_Molecular_weight>
348.42554

> <s_m_Source_Path>
C:\Users\yujiethinkpad\Desktop\05A\MCL1\original

> <s_m_Source_File>
MCL1_45.sdf

> <r_user_dG.exp>
-8.95356461676206

> <s_fepmapper_entryid>
39

> <i_fepmapper_bias>
0

> <i_fepmapper_affinity>
1

> <r_fepmapper_exp_dG>
-8.95356461676

> <i_fepmapper_unit>
1

> <i_m_Source_File_Index>
1

> <s_m_job_name>
glide-dock_SP_redock_5965

> <s_i_glide_gridfile>
glide-grid_MCL1

> <i_i_glide_lignum>
29

> <i_i_glide_rotatable_bonds>
6

> <r_i_docking_score>
-8.89123984581543

> <r_i_glide_ligand_efficiency>
-0.341970763300594

> <r_i_glide_ligand_efficiency_sa>
-1.01308704068803

> <r_i_glide_ligand_efficiency_ln>
-2.08807850325224

> <r_i_glide_gscore>
-8.89123984581543

> <r_i_glide_lipo>
-5.39449365478459

> <r_i_glide_hbond>
-0.2

> <r_i_glide_metal>
0

> <r_i_glide_rewards>
-1.93353422727273

> <r_i_glide_evdw>
-29.9540729522705

> <r_i_glide_ecoul>
-3.17535400390625

> <r_i_glide_erotb>
0.627262239314276

> <r_i_glide_esite>
-0.016467454872927

> <r_i_glide_emodel>
-42.0158603945605

> <r_i_glide_energy>
-33.1294269561768

> <r_i_glide_einternal>
8.41890430450439

> <i_i_glide_confnum>
58

> <i_i_glide_posenum>
46

> <r_i_glide_eff_state_penalty>
0

> <r_glide_shape_similarity>
0.893616497516632

> <s_m_subgroup_title>
glide-dock_SP_redock_5965_lib1

> <s_m_subgroupid>
glide-dock_SP_redock_5965_lib1

> <b_m_subgroup_collapsed>
0

$$$$
