47
                    3D
 Schrodinger Suite 2021-2.
 43 46  0  0  1  0            999 V2000
    3.9892  -49.6089    6.6391 O   0  0  0  0  0  0
    3.0756  -48.7491    6.5797 C   0  0  0  0  0  0
    3.2630  -47.5218    6.7608 O   0  5  0  0  0  0
    1.6934  -49.1779    6.3217 C   0  0  0  0  0  0
   -0.0968  -50.6110    6.3804 C   0  0  0  0  0  0
   -1.0137  -51.6779    6.5355 C   0  0  0  0  0  0
   -2.3965  -51.4388    6.3434 C   0  0  0  0  0  0
   -2.8464  -50.1577    5.9480 C   0  0  0  0  0  0
   -1.9189  -49.1121    5.7506 C   0  0  0  0  0  0
   -0.5319  -49.3078    5.9762 C   0  0  0  0  0  0
    0.6155  -48.4436    5.8856 C   0  0  0  0  0  0
    0.6387  -47.0237    5.3899 C   0  0  0  0  0  0
    0.5283  -46.0035    6.5192 C   0  0  0  0  0  0
   -0.8556  -46.0317    7.1656 C   0  0  0  0  0  0
   -1.8426  -45.8066    6.1653 O   0  0  0  0  0  0
   -3.0906  -45.5031    6.6527 C   0  0  0  0  0  0
   -5.1728  -44.2076    6.4136 C   0  0  0  0  0  0
   -3.9178  -44.6069    5.9133 C   0  0  0  0  0  0
   -0.6654  -52.6568    6.8380 H   0  0  0  0  0  0
   -3.1064  -52.2413    6.4718 H   0  0  0  0  0  0
   -3.8987  -49.9841    5.7735 H   0  0  0  0  0  0
   -2.2779  -48.1465    5.4270 H   0  0  0  0  0  0
    1.5534  -46.8266    4.8308 H   0  0  0  0  0  0
   -0.1666  -46.8668    4.6712 H   0  0  0  0  0  0
    1.2527  -46.2056    7.3113 H   0  0  0  0  0  0
    0.7477  -45.0060    6.1497 H   0  0  0  0  0  0
   -1.0852  -47.0162    7.5472 H   0  0  0  0  0  0
   -0.9136  -45.2959    7.9705 H   0  0  0  0  0  0
   -3.5523  -44.2024    4.9833 H   0  0  0  0  0  0
   -3.5187  -46.0706    7.8598 C   0  0  0  0  0  0
   -5.7925  -43.5038    5.8815 H   0  0  0  0  0  0
   -4.7585  -45.7045    8.3502 C   0  0  0  0  0  0
   -5.6136  -44.7832    7.6424 C   0  0  0  0  0  0
   -6.8158  -44.4526    8.1437 N   0  0  0  0  0  0
   -7.1529  -45.0069    9.3366 C   0  0  0  0  0  0
   -6.3553  -45.8668   10.1126 C   0  0  0  0  0  0
   -5.1396  -46.2682    9.5764 C   0  0  0  0  0  0
   -8.1317  -44.6921    9.6639 H   0  0  0  0  0  0
   -6.7336  -46.2411   11.0521 H   0  0  0  0  0  0
   -4.5108  -46.9467   10.1250 H   0  0  0  0  0  0
   -2.9224  -46.7769    8.4204 H   0  0  0  0  0  0
    1.2832  -50.4867    6.5482 N   0  0  0  0  0  0
    1.9262  -51.1946    6.8771 H   0  0  0  0  0  0
  1  2  2  0  0  0
  2  3  1  0  0  0
  2  4  1  0  0  0
  4 11  2  0  0  0
  4 42  1  0  0  0
  5  6  1  0  0  0
  5 10  2  0  0  0
  5 42  1  0  0  0
  6  7  2  0  0  0
  6 19  1  0  0  0
  7  8  1  0  0  0
  7 20  1  0  0  0
  8  9  2  0  0  0
  8 21  1  0  0  0
  9 10  1  0  0  0
  9 22  1  0  0  0
 10 11  1  0  0  0
 11 12  1  0  0  0
 12 23  1  0  0  0
 12 24  1  0  0  0
 12 13  1  0  0  0
 13 14  1  0  0  0
 13 25  1  0  0  0
 13 26  1  0  0  0
 14 15  1  0  0  0
 14 27  1  0  0  0
 14 28  1  0  0  0
 15 16  1  0  0  0
 16 18  2  0  0  0
 16 30  1  0  0  0
 17 18  1  0  0  0
 17 31  1  0  0  0
 17 33  2  0  0  0
 18 29  1  0  0  0
 30 32  2  0  0  0
 30 41  1  0  0  0
 32 33  1  0  0  0
 32 37  1  0  0  0
 33 34  1  0  0  0
 34 35  2  0  0  0
 35 36  1  0  0  0
 35 38  1  0  0  0
 36 37  2  0  0  0
 36 39  1  0  0  0
 37 40  1  0  0  0
 42 43  1  0  0  0
M  CHG  1   3  -1
M  END
> <s_m_entry_id>
383

> <s_m_entry_name>
MCL1_47.1

> <r_m_Molecular_weight>
345.38124

> <s_m_Source_Path>
C:\Users\yujiethinkpad\Desktop\05A\MCL1\original

> <s_m_Source_File>
MCL1_47.sdf

> <r_user_dG.exp>
-5.77553168796231

> <s_fepmapper_entryid>
33

> <i_fepmapper_bias>
0

> <i_fepmapper_affinity>
1

> <r_fepmapper_exp_dG>
-5.77553168796

> <i_fepmapper_unit>
1

> <i_m_Source_File_Index>
1

> <s_m_job_name>
glide-dock_SP_redock_5965

> <s_i_glide_gridfile>
glide-grid_MCL1

> <i_i_glide_lignum>
31

> <i_i_glide_rotatable_bonds>
6

> <r_i_docking_score>
-8.30317689982114

> <r_i_glide_ligand_efficiency>
-0.319352957685429

> <r_i_glide_ligand_efficiency_sa>
-0.946081880549872

> <r_i_glide_ligand_efficiency_ln>
-1.94997384997739

> <r_i_glide_gscore>
-8.30317689982114

> <r_i_glide_lipo>
-5.06273455500887

> <r_i_glide_hbond>
-0.2

> <r_i_glide_metal>
0

> <r_i_glide_rewards>
-1.76558708919399

> <r_i_glide_evdw>
-28.3663463592529

> <r_i_glide_ecoul>
-3.16497182846069

> <r_i_glide_erotb>
0.637114732374426

> <r_i_glide_esite>
-0.0189068957609648

> <r_i_glide_emodel>
-40.5270949782712

> <r_i_glide_energy>
-31.5313181877136

> <r_i_glide_einternal>
3.95834875106812

> <i_i_glide_confnum>
43

> <i_i_glide_posenum>
14

> <r_i_glide_eff_state_penalty>
0

> <r_glide_shape_similarity>
0.880622863769531

> <s_m_subgroup_title>
glide-dock_SP_redock_5965_lib1

> <s_m_subgroupid>
glide-dock_SP_redock_5965_lib1

> <b_m_subgroup_collapsed>
0

$$$$
