49
                    3D
 Schrodinger Suite 2021-2.
 41 43  0  0  1  0            999 V2000
    4.0071  -49.9685    6.5410 O   0  0  0  0  0  0
    3.1449  -49.0612    6.5985 C   0  0  0  0  0  0
    3.4198  -47.8767    6.8990 O   0  5  0  0  0  0
    1.7272  -49.4005    6.3521 C   0  0  0  0  0  0
   -0.0957  -50.7849    6.4055 C   0  0  0  0  0  0
   -1.0312  -51.8327    6.5756 C   0  0  0  0  0  0
   -2.4087  -51.5865    6.3658 C   0  0  0  0  0  0
   -2.8317  -50.3065    5.9497 C   0  0  0  0  0  0
   -1.8699  -49.2938    5.7420 C   0  0  0  0  0  0
   -0.4959  -49.4758    6.0069 C   0  0  0  0  0  0
    0.6712  -48.6266    5.9452 C   0  0  0  0  0  0
    0.7790  -47.1963    5.4971 C   0  0  0  0  0  0
    0.6571  -46.2279    6.6768 C   0  0  0  0  0  0
   -0.7804  -45.8198    7.0126 C   0  0  0  0  0  0
   -1.6418  -46.6893    7.7284 O   0  0  0  0  0  0
   -2.9434  -46.2534    7.8792 C   0  0  0  0  0  0
   -3.5758  -45.3956    6.9516 C   0  0  0  0  0  0
   -4.9030  -44.9803    7.1509 C   0  0  0  0  0  0
   -5.5015  -44.0463    6.0932 C   0  0  0  0  0  0
   -5.6044  -45.3695    8.3105 C   0  0  0  0  0  0
   -7.1533  -44.7132    8.6621 Cl  0  0  0  0  0  0
   -5.0174  -46.2872    9.1981 C   0  0  0  0  0  0
   -3.6974  -46.7323    8.9736 C   0  0  0  0  0  0
   -0.6951  -52.8129    6.8808 H   0  0  0  0  0  0
   -3.1316  -52.3792    6.5021 H   0  0  0  0  0  0
   -3.8747  -50.1135    5.7429 H   0  0  0  0  0  0
   -2.3402  -47.8053    5.0687 Cl  0  0  0  0  0  0
    0.0780  -46.9612    4.7021 H   0  0  0  0  0  0
    1.7522  -47.0429    5.0297 H   0  0  0  0  0  0
    1.1497  -45.3165    6.3488 H   0  0  0  0  0  0
    1.2226  -46.5650    7.5448 H   0  0  0  0  0  0
   -1.2089  -45.5742    6.0513 H   0  0  0  0  0  0
   -0.7438  -44.9704    7.6638 H   0  0  0  0  0  0
   -3.1047  -45.0318    6.0549 H   0  0  0  0  0  0
   -5.0897  -43.0419    6.1884 H   0  0  0  0  0  0
   -6.5872  -43.9823    6.1494 H   0  0  0  0  0  0
   -5.2544  -44.4047    5.0939 H   0  0  0  0  0  0
   -3.2378  -47.4035    9.6800 H   0  0  0  0  0  0
   -5.5575  -46.6235   10.0705 H   0  0  0  0  0  0
    1.2827  -50.7097    6.5425 N   0  0  0  0  0  0
    1.9191  -51.4551    6.8017 H   0  0  0  0  0  0
  1  2  2  0  0  0
  2  3  1  0  0  0
  2  4  1  0  0  0
  4 11  2  0  0  0
  4 40  1  0  0  0
  5  6  1  0  0  0
  5 10  2  0  0  0
  5 40  1  0  0  0
  6  7  2  0  0  0
  6 24  1  0  0  0
  7  8  1  0  0  0
  7 25  1  0  0  0
  8  9  2  0  0  0
  8 26  1  0  0  0
  9 10  1  0  0  0
  9 27  1  0  0  0
 10 11  1  0  0  0
 11 12  1  0  0  0
 12 28  1  0  0  0
 12 29  1  0  0  0
 12 13  1  0  0  0
 13 14  1  0  0  0
 13 30  1  0  0  0
 13 31  1  0  0  0
 14 15  1  0  0  0
 14 32  1  0  0  0
 14 33  1  0  0  0
 15 16  1  0  0  0
 16 17  1  0  0  0
 16 23  2  0  0  0
 17 18  2  0  0  0
 17 34  1  0  0  0
 18 19  1  0  0  0
 18 20  1  0  0  0
 19 35  1  0  0  0
 19 36  1  0  0  0
 19 37  1  0  0  0
 20 21  1  0  0  0
 20 22  2  0  0  0
 22 23  1  0  0  0
 22 39  1  0  0  0
 23 38  1  0  0  0
 40 41  1  0  0  0
M  CHG  1   3  -1
M  END
> <s_m_entry_id>
395

> <s_m_entry_name>
MCL1_49.1

> <r_m_Molecular_weight>
377.25027

> <s_m_Source_Path>
C:\Users\yujiethinkpad\Desktop\05A\MCL1\original

> <s_m_Source_File>
MCL1_49.sdf

> <r_user_dG.exp>
-8.36145743731744

> <s_fepmapper_entryid>
26

> <i_fepmapper_bias>
0

> <i_fepmapper_affinity>
1

> <r_fepmapper_exp_dG>
-8.36145743732

> <i_fepmapper_unit>
1

> <i_m_Source_File_Index>
1

> <s_m_job_name>
glide-dock_SP_redock_5965

> <s_i_glide_gridfile>
glide-grid_MCL1

> <i_i_glide_lignum>
33

> <i_i_glide_rotatable_bonds>
6

> <r_i_docking_score>
-7.79200850423581

> <r_i_glide_ligand_efficiency>
-0.311680340169433

> <r_i_glide_ligand_efficiency_sa>
-0.911358842329791

> <r_i_glide_ligand_efficiency_ln>
-1.84693952315585

> <r_i_glide_gscore>
-7.79200850423581

> <r_i_glide_lipo>
-4.87231217878043

> <r_i_glide_hbond>
-0.2

> <r_i_glide_metal>
0

> <r_i_glide_rewards>
-1.6186366301562

> <r_i_glide_evdw>
-26.6603908538818

> <r_i_glide_ecoul>
-2.90947532653809

> <r_i_glide_erotb>
0.680424897087132

> <r_i_glide_esite>
-0.0120437507115139

> <r_i_glide_emodel>
-37.4722317173745

> <r_i_glide_energy>
-29.5698661804199

> <r_i_glide_einternal>
6.49996566772461

> <i_i_glide_confnum>
137

> <i_i_glide_posenum>
5

> <r_i_glide_eff_state_penalty>
0

> <r_glide_shape_similarity>
0.916684567928314

> <s_m_subgroup_title>
glide-dock_SP_redock_5965_lib1

> <s_m_subgroupid>
glide-dock_SP_redock_5965_lib1

> <b_m_subgroup_collapsed>
0

$$$$
