50
                    3D
 Schrodinger Suite 2021-2.
 44 46  0  0  1  0            999 V2000
    3.2600  -47.3972    6.7553 O   0  0  0  0  0  0
    3.1244  -48.6074    6.4914 C   0  0  0  0  0  0
    4.0842  -49.4162    6.4462 O   0  5  0  0  0  0
    1.7538  -49.1291    6.2975 C   0  0  0  0  0  0
    0.2037  -50.7941    6.4215 C   0  0  0  0  0  0
   -0.4927  -52.0138    6.5924 C   0  0  0  0  0  0
   -1.8980  -52.0431    6.4625 C   0  0  0  0  0  0
   -2.5810  -50.8564    6.1292 C   0  0  0  0  0  0
   -1.8608  -49.6596    5.9385 C   0  0  0  0  0  0
   -0.4536  -49.5737    6.0796 C   0  0  0  0  0  0
    0.5604  -48.5359    5.9517 C   0  0  0  0  0  0
    0.3988  -47.0984    5.5132 C   0  0  0  0  0  0
    0.3579  -46.0897    6.6784 C   0  0  0  0  0  0
   -0.9463  -46.0582    7.4851 C   0  0  0  0  0  0
   -1.9427  -45.7956    6.5444 O   0  0  0  0  0  0
   -3.1969  -45.4091    6.9856 C   0  0  0  0  0  0
   -3.9519  -44.6058    6.1088 C   0  0  0  0  0  0
   -5.2827  -44.2255    6.4178 C   0  0  0  0  0  0
   -6.1200  -43.5214    5.3511 C   0  0  0  0  0  0
   -5.8575  -44.7233    7.6365 C   0  0  0  0  0  0
   -7.5377  -44.5961    7.9560 Cl  0  0  0  0  0  0
   -5.0860  -45.5291    8.5405 C   0  0  0  0  0  0
   -5.6821  -46.0535    9.8455 C   0  0  0  0  0  0
   -3.7560  -45.8719    8.2062 C   0  0  0  0  0  0
    0.0469  -52.9196    6.8496 H   0  0  0  0  0  0
   -2.4471  -52.9631    6.5972 H   0  0  0  0  0  0
   -3.6519  -50.8625    6.0127 H   0  0  0  0  0  0
   -2.7404  -48.2573    5.5502 Cl  0  0  0  0  0  0
   -0.4809  -46.9988    4.8709 H   0  0  0  0  0  0
    1.2301  -46.8263    4.8598 H   0  0  0  0  0  0
    0.4668  -45.0909    6.2641 H   0  0  0  0  0  0
    1.1933  -46.2551    7.3508 H   0  0  0  0  0  0
   -0.9038  -45.2821    8.2596 H   0  0  0  0  0  0
   -1.1850  -47.0058    7.9492 H   0  0  0  0  0  0
   -3.5248  -44.3162    5.1579 H   0  0  0  0  0  0
   -5.5478  -43.4610    4.4237 H   0  0  0  0  0  0
   -6.3944  -42.5056    5.6317 H   0  0  0  0  0  0
   -7.0292  -44.0933    5.1324 H   0  0  0  0  0  0
   -4.9777  -46.7244   10.3511 H   0  0  0  0  0  0
   -5.9108  -45.2296   10.5256 H   0  0  0  0  0  0
   -6.5997  -46.6047    9.6613 H   0  0  0  0  0  0
   -3.1997  -46.5056    8.8671 H   0  0  0  0  0  0
    1.5434  -50.4800    6.5183 N   0  0  0  0  0  0
    2.3172  -51.1046    6.7375 H   0  0  0  0  0  0
  1  2  2  0  0  0
  2  3  1  0  0  0
  2  4  1  0  0  0
  4 11  2  0  0  0
  4 43  1  0  0  0
  5  6  1  0  0  0
  5 10  2  0  0  0
  5 43  1  0  0  0
  6  7  2  0  0  0
  6 25  1  0  0  0
  7  8  1  0  0  0
  7 26  1  0  0  0
  8  9  2  0  0  0
  8 27  1  0  0  0
  9 10  1  0  0  0
  9 28  1  0  0  0
 10 11  1  0  0  0
 11 12  1  0  0  0
 12 29  1  0  0  0
 12 30  1  0  0  0
 12 13  1  0  0  0
 13 14  1  0  0  0
 13 31  1  0  0  0
 13 32  1  0  0  0
 14 15  1  0  0  0
 14 33  1  0  0  0
 14 34  1  0  0  0
 15 16  1  0  0  0
 16 17  1  0  0  0
 16 24  2  0  0  0
 17 18  2  0  0  0
 17 35  1  0  0  0
 18 19  1  0  0  0
 18 20  1  0  0  0
 19 36  1  0  0  0
 19 37  1  0  0  0
 19 38  1  0  0  0
 20 21  1  0  0  0
 20 22  2  0  0  0
 22 23  1  0  0  0
 22 24  1  0  0  0
 23 39  1  0  0  0
 23 40  1  0  0  0
 23 41  1  0  0  0
 24 42  1  0  0  0
 43 44  1  0  0  0
M  CHG  1   3  -1
M  END
> <s_m_entry_id>
389

> <s_m_entry_name>
MCL1_50.1

> <r_m_Molecular_weight>
391.27736

> <s_m_Source_Path>
C:\Users\yujiethinkpad\Desktop\05A\MCL1\original

> <s_m_Source_File>
MCL1_50.sdf

> <r_user_dG.exp>
-9.32829709690352

> <s_fepmapper_entryid>
13

> <i_fepmapper_bias>
0

> <i_fepmapper_affinity>
1

> <r_fepmapper_exp_dG>
-9.3282970969

> <i_fepmapper_unit>
1

> <i_m_Source_File_Index>
1

> <s_m_job_name>
glide-dock_SP_redock_5965

> <s_i_glide_gridfile>
glide-grid_MCL1

> <i_i_glide_lignum>
34

> <i_i_glide_rotatable_bonds>
6

> <r_i_docking_score>
-8.21208875710077

> <r_i_glide_ligand_efficiency>
-0.315849567580799

> <r_i_glide_ligand_efficiency_sa>
-0.935703101150081

> <r_i_glide_ligand_efficiency_ln>
-1.92858209854408

> <r_i_glide_gscore>
-8.21208875710077

> <r_i_glide_lipo>
-5.24220971214811

> <r_i_glide_hbond>
-0.2

> <r_i_glide_metal>
0

> <r_i_glide_rewards>
-1.50524971447895

> <r_i_glide_evdw>
-29.3716163635254

> <r_i_glide_ecoul>
-2.72152733802795

> <r_i_glide_erotb>
0.637301348502223

> <r_i_glide_esite>
-0.0251207600954701

> <r_i_glide_emodel>
-39.0921960600554

> <r_i_glide_energy>
-32.0931437015533

> <r_i_glide_einternal>
7.1844801902771

> <i_i_glide_confnum>
263

> <i_i_glide_posenum>
146

> <r_i_glide_eff_state_penalty>
0

> <r_glide_shape_similarity>
0.878701984882355

> <s_m_subgroup_title>
glide-dock_SP_redock_5965_lib1

> <s_m_subgroupid>
glide-dock_SP_redock_5965_lib1

> <b_m_subgroup_collapsed>
0

$$$$
