52
                    3D
 Schrodinger Suite 2021-2.
 41 43  0  0  1  0            999 V2000
    4.0509  -49.9160    6.4152 O   0  0  0  0  0  0
    3.2123  -49.0047    6.6211 C   0  0  0  0  0  0
    3.5253  -47.8836    7.0900 O   0  5  0  0  0  0
    1.7845  -49.2765    6.3519 C   0  0  0  0  0  0
   -0.0953  -50.5872    6.3559 C   0  0  0  0  0  0
   -1.1008  -51.5651    6.5073 C   0  0  0  0  0  0
   -2.4378  -51.1698    6.2549 C   0  0  0  0  0  0
   -2.7787  -49.8838    5.8204 C   0  0  0  0  0  0
   -1.7696  -48.9408    5.6395 C   0  0  0  0  0  0
   -0.4276  -49.2517    5.9534 C   0  0  0  0  0  0
    0.7605  -48.4567    5.9402 C   0  0  0  0  0  0
    0.8495  -47.0291    5.5013 C   0  0  0  0  0  0
    0.5530  -46.0672    6.6531 C   0  0  0  0  0  0
   -0.9341  -45.8058    6.9158 C   0  0  0  0  0  0
   -1.7240  -46.7713    7.5699 O   0  0  0  0  0  0
   -2.9959  -46.3440    7.8868 C   0  0  0  0  0  0
   -3.7176  -45.4045    7.1127 C   0  0  0  0  0  0
   -5.0224  -45.0124    7.4748 C   0  0  0  0  0  0
   -5.7684  -44.1012    6.5083 C   0  0  0  0  0  0
   -5.5836  -45.5113    8.6746 C   0  0  0  0  0  0
   -7.1380  -45.0053    9.2000 Cl  0  0  0  0  0  0
   -4.8874  -46.4722    9.4381 C   0  0  0  0  0  0
   -3.6099  -46.9071    9.0233 C   0  0  0  0  0  0
   -0.8630  -52.5713    6.8270 H   0  0  0  0  0  0
   -3.7478  -52.2206    6.4413 Cl  0  0  0  0  0  0
   -3.8063  -49.6236    5.6090 H   0  0  0  0  0  0
   -2.0298  -47.9498    5.2973 H   0  0  0  0  0  0
    0.1662  -46.8468    4.6716 H   0  0  0  0  0  0
    1.8464  -46.8195    5.1083 H   0  0  0  0  0  0
    0.9467  -45.1049    6.3388 H   0  0  0  0  0  0
    1.1079  -46.3287    7.5514 H   0  0  0  0  0  0
   -1.3918  -45.6196    5.9506 H   0  0  0  0  0  0
   -0.9960  -44.9208    7.5516 H   0  0  0  0  0  0
   -3.3177  -44.9853    6.2058 H   0  0  0  0  0  0
   -5.1931  -43.1881    6.3504 H   0  0  0  0  0  0
   -6.7689  -43.8382    6.8553 H   0  0  0  0  0  0
   -5.8881  -44.5973    5.5438 H   0  0  0  0  0  0
   -3.0620  -47.6565    9.5716 H   0  0  0  0  0  0
   -5.3355  -46.8758   10.3351 H   0  0  0  0  0  0
    1.2848  -50.5731    6.5247 N   0  0  0  0  0  0
    1.8891  -51.3389    6.8099 H   0  0  0  0  0  0
  1  2  2  0  0  0
  2  3  1  0  0  0
  2  4  1  0  0  0
  4 11  2  0  0  0
  4 40  1  0  0  0
  5  6  1  0  0  0
  5 10  2  0  0  0
  5 40  1  0  0  0
  6  7  2  0  0  0
  6 24  1  0  0  0
  7  8  1  0  0  0
  7 25  1  0  0  0
  8  9  2  0  0  0
  8 26  1  0  0  0
  9 10  1  0  0  0
  9 27  1  0  0  0
 10 11  1  0  0  0
 11 12  1  0  0  0
 12 28  1  0  0  0
 12 29  1  0  0  0
 12 13  1  0  0  0
 13 14  1  0  0  0
 13 30  1  0  0  0
 13 31  1  0  0  0
 14 15  1  0  0  0
 14 32  1  0  0  0
 14 33  1  0  0  0
 15 16  1  0  0  0
 16 17  1  0  0  0
 16 23  2  0  0  0
 17 18  2  0  0  0
 17 34  1  0  0  0
 18 19  1  0  0  0
 18 20  1  0  0  0
 19 35  1  0  0  0
 19 36  1  0  0  0
 19 37  1  0  0  0
 20 21  1  0  0  0
 20 22  2  0  0  0
 22 23  1  0  0  0
 22 39  1  0  0  0
 23 38  1  0  0  0
 40 41  1  0  0  0
M  CHG  1   3  -1
M  END
> <s_m_entry_id>
392

> <s_m_entry_name>
MCL1_52.1

> <r_m_Molecular_weight>
377.25027

> <s_m_Source_Path>
C:\Users\yujiethinkpad\Desktop\05A\MCL1\original

> <s_m_Source_File>
MCL1_52.sdf

> <r_user_dG.exp>
-9.22585200324184

> <s_fepmapper_entryid>
8

> <i_fepmapper_bias>
0

> <i_fepmapper_affinity>
1

> <r_fepmapper_exp_dG>
-9.22585200324

> <i_fepmapper_unit>
1

> <i_m_Source_File_Index>
1

> <s_m_job_name>
glide-dock_SP_redock_5965

> <s_i_glide_gridfile>
glide-grid_MCL1

> <i_i_glide_lignum>
36

> <i_i_glide_rotatable_bonds>
6

> <r_i_docking_score>
-7.86741980755096

> <r_i_glide_ligand_efficiency>
-0.314696792302039

> <r_i_glide_ligand_efficiency_sa>
-0.920179001862537

> <r_i_glide_ligand_efficiency_ln>
-1.86481426193594

> <r_i_glide_gscore>
-7.86741980755096

> <r_i_glide_lipo>
-4.8489538566455

> <r_i_glide_hbond>
-0.191423975140707

> <r_i_glide_metal>
0

> <r_i_glide_rewards>
-1.52554049291835

> <r_i_glide_evdw>
-27.6190948486328

> <r_i_glide_ecoul>
-3.8718113899231

> <r_i_glide_erotb>
0.680424897087132

> <r_i_glide_esite>
-0.0201999290134367

> <r_i_glide_emodel>
-38.6745062758533

> <r_i_glide_energy>
-31.4909062385559

> <r_i_glide_einternal>
8.08236312866211

> <i_i_glide_confnum>
280

> <i_i_glide_posenum>
381

> <r_i_glide_eff_state_penalty>
0

> <r_glide_shape_similarity>
0.905113518238068

> <s_m_subgroup_title>
glide-dock_SP_redock_5965_lib1

> <s_m_subgroupid>
glide-dock_SP_redock_5965_lib1

> <b_m_subgroup_collapsed>
0

$$$$
