58
                    3D
 Schrodinger Suite 2021-2.
 47 49  0  0  1  0            999 V2000
    3.2597  -47.4704    6.9053 O   0  0  0  0  0  0
    3.1144  -48.6593    6.5274 C   0  0  0  0  0  0
    4.1002  -49.4089    6.3487 O   0  5  0  0  0  0
    1.7285  -49.1521    6.2929 C   0  0  0  0  0  0
   -0.0565  -50.5899    6.3511 C   0  0  0  0  0  0
   -0.9825  -51.6423    6.5372 C   0  0  0  0  0  0
   -2.3603  -51.3859    6.3708 C   0  0  0  0  0  0
   -2.8145  -50.1187    5.9575 C   0  0  0  0  0  0
   -1.8858  -49.0893    5.7294 C   0  0  0  0  0  0
   -0.4996  -49.2913    5.9534 C   0  0  0  0  0  0
    0.6385  -48.4259    5.8788 C   0  0  0  0  0  0
    0.6197  -46.9856    5.4476 C   0  0  0  0  0  0
    0.4117  -46.0324    6.6428 C   0  0  0  0  0  0
   -0.9633  -46.1786    7.3124 C   0  0  0  0  0  0
   -1.9390  -45.8065    6.3642 O   0  0  0  0  0  0
   -3.1773  -45.4502    6.8355 C   0  0  0  0  0  0
   -3.7200  -45.9197    8.0615 C   0  0  0  0  0  0
   -5.0217  -45.5218    8.4498 C   0  0  0  0  0  0
   -5.5845  -46.0152    9.7801 C   0  0  0  0  0  0
   -5.7799  -44.6683    7.5944 C   0  0  0  0  0  0
   -7.3801  -44.2226    8.0508 Cl  0  0  0  0  0  0
   -5.2475  -44.2061    6.3517 C   0  0  0  0  0  0
   -6.0608  -43.3744    5.3602 C   0  0  0  0  0  0
   -3.9402  -44.6060    5.9931 C   0  0  0  0  0  0
   -0.6510  -52.6171    6.8591 H   0  0  0  0  0  0
   -3.5013  -52.6054    6.7493 Cl  0  0  0  0  0  0
   -3.8710  -49.9356    5.8204 H   0  0  0  0  0  0
   -2.2407  -48.1219    5.4065 H   0  0  0  0  0  0
   -0.1743  -46.8342    4.7212 H   0  0  0  0  0  0
    1.5463  -46.7304    4.9307 H   0  0  0  0  0  0
    0.5509  -45.0066    6.3123 H   0  0  0  0  0  0
    1.1824  -46.2058    7.3918 H   0  0  0  0  0  0
   -1.0107  -45.5700    8.2177 H   0  0  0  0  0  0
   -1.1698  -47.2136    7.5529 H   0  0  0  0  0  0
   -3.1551  -46.5822    8.7004 H   0  0  0  0  0  0
   -4.8521  -46.6057   10.3314 H   0  0  0  0  0  0
   -6.4665  -46.6318    9.6158 H   0  0  0  0  0  0
   -5.8697  -45.1701   10.4068 H   0  0  0  0  0  0
   -5.7216  -43.5641    4.3409 H   0  0  0  0  0  0
   -7.1206  -43.6252    5.3959 H   0  0  0  0  0  0
   -5.9471  -42.3094    5.5508 H   0  0  0  0  0  0
   -3.5296  -44.2883    5.0479 H   0  0  0  0  0  0
    2.1983  -51.6028    6.9029 C   0  0  0  0  0  0
    1.6241  -52.5165    7.0485 H   0  0  0  0  0  0
    2.9418  -51.7835    6.1256 H   0  0  0  0  0  0
    2.7071  -51.3569    7.8358 H   0  0  0  0  0  0
    1.3333  -50.4942    6.5035 N   0  0  0  0  0  0
  1  2  2  0  0  0
  2  3  1  0  0  0
  2  4  1  0  0  0
  4 11  2  0  0  0
  4 47  1  0  0  0
  5  6  1  0  0  0
  5 10  2  0  0  0
  5 47  1  0  0  0
  6  7  2  0  0  0
  6 25  1  0  0  0
  7  8  1  0  0  0
  7 26  1  0  0  0
  8  9  2  0  0  0
  8 27  1  0  0  0
  9 10  1  0  0  0
  9 28  1  0  0  0
 10 11  1  0  0  0
 11 12  1  0  0  0
 12 29  1  0  0  0
 12 30  1  0  0  0
 12 13  1  0  0  0
 13 14  1  0  0  0
 13 31  1  0  0  0
 13 32  1  0  0  0
 14 15  1  0  0  0
 14 33  1  0  0  0
 14 34  1  0  0  0
 15 16  1  0  0  0
 16 17  1  0  0  0
 16 24  2  0  0  0
 17 18  2  0  0  0
 17 35  1  0  0  0
 18 19  1  0  0  0
 18 20  1  0  0  0
 19 36  1  0  0  0
 19 37  1  0  0  0
 19 38  1  0  0  0
 20 21  1  0  0  0
 20 22  2  0  0  0
 22 23  1  0  0  0
 22 24  1  0  0  0
 23 39  1  0  0  0
 23 40  1  0  0  0
 23 41  1  0  0  0
 24 42  1  0  0  0
 43 44  1  0  0  0
 43 45  1  0  0  0
 43 46  1  0  0  0
 43 47  1  0  0  0
M  CHG  1   3  -1
M  END
> <s_m_entry_id>
384

> <s_m_entry_name>
MCL1_58.1

> <r_m_Molecular_weight>
405.30445

> <s_m_Source_Path>
C:\Users\yujiethinkpad\Desktop\05A\MCL1\original

> <s_m_Source_File>
MCL1_58.sdf

> <r_user_dG.exp>
-9.40789916598878

> <s_fepmapper_entryid>
30

> <i_fepmapper_bias>
0

> <i_fepmapper_affinity>
1

> <r_fepmapper_exp_dG>
-9.40789916599

> <i_fepmapper_unit>
1

> <i_m_Source_File_Index>
1

> <s_m_job_name>
glide-dock_SP_redock_5965

> <s_i_glide_gridfile>
glide-grid_MCL1

> <i_i_glide_lignum>
41

> <i_i_glide_rotatable_bonds>
6

> <r_i_docking_score>
-8.29725402969529

> <r_i_glide_ligand_efficiency>
-0.307305704803529

> <r_i_glide_ligand_efficiency_sa>
-0.921917113397758

> <r_i_glide_ligand_efficiency_ln>
-1.93146394718959

> <r_i_glide_gscore>
-8.29725402969529

> <r_i_glide_lipo>
-5.07359718083266

> <r_i_glide_hbond>
-0.2

> <r_i_glide_metal>
0

> <r_i_glide_rewards>
-1.629708713802

> <r_i_glide_evdw>
-30.3389930725098

> <r_i_glide_ecoul>
-3.00671577453613

> <r_i_glide_erotb>
0.598166599396215

> <r_i_glide_esite>
-0.0241577146509293

> <r_i_glide_emodel>
-42.0514032777436

> <r_i_glide_energy>
-33.3457088470459

> <r_i_glide_einternal>
5.01958703994751

> <i_i_glide_confnum>
281

> <i_i_glide_posenum>
284

> <r_i_glide_eff_state_penalty>
0

> <r_glide_shape_similarity>
0.880724370479584

> <s_m_subgroup_title>
glide-dock_SP_redock_5965_lib1

> <s_m_subgroupid>
glide-dock_SP_redock_5965_lib1

> <b_m_subgroup_collapsed>
0

$$$$
