63
                    3D
 Schrodinger Suite 2021-2.
 43 45  0  0  1  0            999 V2000
    3.2624  -47.4131    6.9270 O   0  0  0  0  0  0
    3.1599  -48.5885    6.5011 C   0  0  0  0  0  0
    4.1629  -49.3413    6.3488 O   0  5  0  0  0  0
    1.8155  -49.0875    6.2239 C   0  0  0  0  0  0
    1.6787  -50.7910    6.5066 S   0  0  0  0  0  0
   -0.0500  -50.6639    6.3436 C   0  0  0  0  0  0
   -0.9122  -51.7077    6.6192 C   0  0  0  0  0  0
   -2.2876  -51.4702    6.6440 C   0  0  0  0  0  0
   -2.7981  -50.2231    6.1825 C   0  0  0  0  0  0
   -1.8972  -49.1838    5.8124 C   0  0  0  0  0  0
   -0.4869  -49.3513    5.9614 C   0  0  0  0  0  0
    0.6437  -48.4374    5.8619 C   0  0  0  0  0  0
    0.5738  -46.9891    5.4714 C   0  0  0  0  0  0
    0.3613  -46.0489    6.6707 C   0  0  0  0  0  0
   -0.9989  -46.1936    7.3587 C   0  0  0  0  0  0
   -1.9751  -45.8054    6.4177 O   0  0  0  0  0  0
   -3.2007  -45.4121    6.8990 C   0  0  0  0  0  0
   -3.9634  -44.6112    6.0101 C   0  0  0  0  0  0
   -5.2945  -44.2057    6.3527 C   0  0  0  0  0  0
   -6.1237  -43.4559    5.3007 C   0  0  0  0  0  0
   -5.8288  -44.6323    7.6019 C   0  0  0  0  0  0
   -7.4963  -44.3253    7.9865 Cl  0  0  0  0  0  0
   -5.0612  -45.4520    8.4916 C   0  0  0  0  0  0
   -5.6450  -45.9649    9.8263 C   0  0  0  0  0  0
   -3.7389  -45.8375    8.1402 C   0  0  0  0  0  0
   -0.5165  -52.6427    6.9849 H   0  0  0  0  0  0
   -3.1697  -52.6761    7.5072 Cl  0  0  0  0  0  0
   -3.8690  -50.0355    6.2022 H   0  0  0  0  0  0
   -2.3040  -48.2213    5.5220 H   0  0  0  0  0  0
   -0.2351  -46.8490    4.7508 H   0  0  0  0  0  0
    1.4954  -46.7043    4.9435 H   0  0  0  0  0  0
    0.4935  -45.0147    6.3391 H   0  0  0  0  0  0
    1.1292  -46.2120    7.4211 H   0  0  0  0  0  0
   -1.0396  -45.5778    8.2639 H   0  0  0  0  0  0
   -1.2346  -47.2247    7.5973 H   0  0  0  0  0  0
   -3.5407  -44.3330    5.0556 H   0  0  0  0  0  0
   -5.6345  -43.5243    4.3278 H   0  0  0  0  0  0
   -6.2247  -42.3969    5.5510 H   0  0  0  0  0  0
   -7.1255  -43.9031    5.1981 H   0  0  0  0  0  0
   -4.9304  -46.5946   10.3460 H   0  0  0  0  0  0
   -5.8823  -45.1224   10.4663 H   0  0  0  0  0  0
   -6.5527  -46.5355    9.6513 H   0  0  0  0  0  0
   -3.1712  -46.4494    8.8175 H   0  0  0  0  0  0
  1  2  2  0  0  0
  2  3  1  0  0  0
  2  4  1  0  0  0
  4  5  1  0  0  0
  4 12  2  0  0  0
  5  6  1  0  0  0
  6  7  1  0  0  0
  6 11  2  0  0  0
  7  8  2  0  0  0
  7 26  1  0  0  0
  8  9  1  0  0  0
  8 27  1  0  0  0
  9 10  2  0  0  0
  9 28  1  0  0  0
 10 11  1  0  0  0
 10 29  1  0  0  0
 11 12  1  0  0  0
 12 13  1  0  0  0
 13 30  1  0  0  0
 13 31  1  0  0  0
 13 14  1  0  0  0
 14 15  1  0  0  0
 14 32  1  0  0  0
 14 33  1  0  0  0
 15 16  1  0  0  0
 15 34  1  0  0  0
 15 35  1  0  0  0
 16 17  1  0  0  0
 17 18  1  0  0  0
 17 25  2  0  0  0
 18 19  2  0  0  0
 18 36  1  0  0  0
 19 20  1  0  0  0
 19 21  1  0  0  0
 20 37  1  0  0  0
 20 38  1  0  0  0
 20 39  1  0  0  0
 21 22  1  0  0  0
 21 23  2  0  0  0
 23 24  1  0  0  0
 23 25  1  0  0  0
 24 40  1  0  0  0
 24 41  1  0  0  0
 24 42  1  0  0  0
 25 43  1  0  0  0
M  CHG  1   3  -1
M  END
> <s_m_entry_id>
387

> <s_m_entry_name>
MCL1_63.1

> <r_m_Molecular_weight>
408.32669

> <s_m_Source_Path>
C:\Users\yujiethinkpad\Desktop\05A\MCL1\original

> <s_m_Source_File>
MCL1_63.sdf

> <r_user_dG.exp>
-9.06225196641364

> <s_fepmapper_entryid>
31

> <i_fepmapper_bias>
0

> <i_fepmapper_affinity>
1

> <r_fepmapper_exp_dG>
-9.06225196641

> <i_fepmapper_unit>
1

> <i_m_Source_File_Index>
1

> <s_m_job_name>
glide-dock_SP_redock_5965

> <s_i_glide_gridfile>
glide-grid_MCL1

> <i_i_glide_lignum>
3

> <i_i_glide_rotatable_bonds>
6

> <r_i_docking_score>
-8.25947321227323

> <r_i_glide_ligand_efficiency>
-0.317672046625893

> <r_i_glide_ligand_efficiency_sa>
-0.941102188150065

> <r_i_glide_ligand_efficiency_ln>
-1.93971018236026

> <r_i_glide_gscore>
-8.25947321227323

> <r_i_glide_lipo>
-5.22039169719338

> <r_i_glide_hbond>
-0.2

> <r_i_glide_metal>
0

> <r_i_glide_rewards>
-1.47055978743853

> <r_i_glide_evdw>
-29.7239742279053

> <r_i_glide_ecoul>
-2.95216059684753

> <r_i_glide_erotb>
0.590202387595814

> <r_i_glide_esite>
-0.0297013143147428

> <r_i_glide_emodel>
-42.7912098519455

> <r_i_glide_energy>
-32.6761348247528

> <r_i_glide_einternal>
5.16843128204346

> <i_i_glide_confnum>
252

> <i_i_glide_posenum>
57

> <r_i_glide_eff_state_penalty>
0

> <r_glide_shape_similarity>
0.896027207374573

> <s_m_subgroup_title>
glide-dock_SP_redock_5965_lib1

> <s_m_subgroupid>
glide-dock_SP_redock_5965_lib1

> <b_m_subgroup_collapsed>
0

$$$$
