CAT-13b
                    3D
 Schrodinger Suite 2021-2.
 42 44  0  0  1  0            999 V2000
   14.2861   -5.4262   -2.1749 C   0  0  0  0  0  0
   15.2415   -4.5693   -1.3396 C   0  0  0  0  0  0
   14.8291   -3.1011   -0.9952 C   0  0  2  0  0  0
   15.2701   -1.9855   -1.9428 C   0  0  0  0  0  0
   15.6961   -2.3075   -3.2374 C   0  0  0  0  0  0
   16.0945   -1.3061   -4.1225 C   0  0  0  0  0  0
   16.0351    0.0347   -3.7435 C   0  0  0  0  0  0
   15.5735    0.4066   -2.4760 C   0  0  0  0  0  0
   15.3460    1.8327   -2.2300 C   0  0  0  0  0  0
   14.5595    2.5272   -3.1643 C   0  0  0  0  0  0
   14.1867    3.8621   -2.9652 C   0  0  0  0  0  0
   14.5651    4.5116   -1.7929 C   0  0  0  0  0  0
   15.3044    3.8193   -0.8340 C   0  0  0  0  0  0
   15.3852    4.5148    0.7311 Cl  0  0  0  0  0  0
   15.7845    2.5204   -1.0901 C   0  0  0  0  0  0
   15.2160   -0.6131   -1.5679 C   0  0  0  0  0  0
   15.3532   -2.8502    0.3258 N   0  3  0  0  0  0
   14.3592   -2.5614    1.1427 C   0  0  0  0  0  0
   14.5849   -2.3246    2.4063 N   0  0  0  0  0  0
   13.1577   -2.5476    0.5718 N   0  0  0  0  0  0
   11.8850   -2.1676    1.1846 C   0  0  0  0  0  0
   13.3329   -2.9048   -0.7749 C   0  0  0  0  0  0
   12.4285   -2.9777   -1.6011 O   0  0  0  0  0  0
   14.7377   -6.3904   -2.4088 H   0  0  0  0  0  0
   13.3535   -5.6276   -1.6477 H   0  0  0  0  0  0
   14.0381   -4.9434   -3.1206 H   0  0  0  0  0  0
   16.2218   -4.5685   -1.8161 H   0  0  0  0  0  0
   15.4073   -5.1268   -0.4156 H   0  0  0  0  0  0
   15.7264   -3.3273   -3.5875 H   0  0  0  0  0  0
   16.4312   -1.5655   -5.1161 H   0  0  0  0  0  0
   16.3163    0.7894   -4.4647 H   0  0  0  0  0  0
   14.2043    2.0240   -4.0520 H   0  0  0  0  0  0
   13.5732    4.3716   -3.6942 H   0  0  0  0  0  0
   14.2076    5.5116   -1.5916 H   0  0  0  0  0  0
   16.3225    1.9909   -0.3186 H   0  0  0  0  0  0
   14.8478   -0.3284   -0.5922 H   0  0  0  0  0  0
   16.3267   -2.9829    0.6171 H   0  0  0  0  0  0
   15.5775   -2.2994    2.7625 H   0  0  0  0  0  0
   11.0398   -2.5913    0.6411 H   0  0  0  0  0  0
   11.8226   -2.5168    2.2149 H   0  0  0  0  0  0
   11.7864   -1.0825    1.1629 H   0  0  0  0  0  0
   13.7995   -2.2167    3.0355 H   0  0  0  0  0  0
  1  2  1  0  0  0
  1 24  1  0  0  0
  1 25  1  0  0  0
  1 26  1  0  0  0
  2  3  1  0  0  0
  2 27  1  0  0  0
  2 28  1  0  0  0
  3  4  1  0  0  0
  3 17  1  0  0  0
  3 22  1  0  0  0
  4  5  2  0  0  0
  4 16  1  0  0  0
  5  6  1  0  0  0
  5 29  1  0  0  0
  6  7  2  0  0  0
  6 30  1  0  0  0
  7  8  1  0  0  0
  7 31  1  0  0  0
  8  9  1  0  0  0
  8 16  2  0  0  0
  9 10  2  0  0  0
  9 15  1  0  0  0
 10 11  1  0  0  0
 10 32  1  0  0  0
 11 12  2  0  0  0
 11 33  1  0  0  0
 12 13  1  0  0  0
 12 34  1  0  0  0
 13 14  1  0  0  0
 13 15  2  0  0  0
 15 35  1  0  0  0
 16 36  1  0  0  0
 17 18  2  0  0  0
 17 37  1  0  0  0
 18 19  1  0  0  0
 18 20  1  0  0  0
 19 38  1  0  0  0
 19 42  1  0  0  0
 20 21  1  0  0  0
 20 22  1  0  0  0
 21 39  1  0  0  0
 21 40  1  0  0  0
 21 41  1  0  0  0
 22 23  2  0  0  0
M  CHG  1  17   1
M  END
> <s_m_entry_id>
1400

> <s_m_entry_name>
Bace_CAT-13b.1

> <s_m_Source_Path>
C:\Users\yujiethinkpad\Desktop\05A\BACE

> <s_m_Source_File>
Bace_CAT-13b.sdf

> <i_m_Source_File_Index>
1

> <s_i_glide_gridfile>
glide-grid_Bace

> <r_i_docking_score>
-6.58686567503106

> <r_i_glide_ecoul>
-13.8769721984863

> <r_i_glide_einternal>
2.5243079662323

> <r_i_glide_emodel>
-34.6922153812086

> <r_i_glide_energy>
-34.6342525482178

> <r_i_glide_erotb>
0.347514515959489

> <r_i_glide_esite>
-0.190514443938016

> <r_i_glide_evdw>
-20.7572803497314

> <r_i_glide_gscore>
-6.58686567503106

> <r_i_glide_hbond>
-0.287691836777413

> <r_i_glide_ligand_efficiency>
-0.286385464131785

> <r_i_glide_ligand_efficiency_ln>
-1.5927638466183

> <r_i_glide_ligand_efficiency_sa>
-0.814442164102623

> <r_i_glide_lipo>
-2.00568875158501

> <r_i_glide_metal>
0

> <r_i_glide_rewards>
-1.33107531143059

> <i_i_glide_confnum>
1

> <i_i_glide_lignum>
21

> <i_i_glide_posenum>
285

> <i_i_glide_rotatable_bonds>
3

> <r_i_glide_eff_state_penalty>
0

> <s_m_job_name>
glide-dock_SP_bace_other

> <r_user_dG.exp>
-9.123

> <r_m_Molecular_weight>
328.82463

> <r_glide_shape_similarity>
0.824226498603821

> <s_m_subgroup_title>
glide-dock_SP_bace_other_lib1

> <s_m_subgroupid>
glide-dock_SP_bace_other_lib1

> <b_m_subgroup_collapsed>
0

$$$$
