CAT-24
                    3D
 Schrodinger Suite 2021-2.
 47 50  0  0  1  0            999 V2000
   15.1993    5.3182    2.7032 C   0  0  0  0  0  0
   15.3029    4.8663    1.3152 C   0  0  0  0  0  0
   15.4006    4.4053    0.1930 C   0  0  0  0  0  0
   15.3296    3.7607   -1.0818 C   0  0  0  0  0  0
   14.5874    4.3673   -2.0974 C   0  0  0  0  0  0
   14.1857    3.7022   -3.1860 N   0  0  0  0  0  0
   14.5465    2.4133   -3.2811 C   0  0  0  0  0  0
   15.3413    1.7272   -2.3450 C   0  0  0  0  0  0
   15.5939    0.3093   -2.5556 C   0  0  0  0  0  0
   16.0866   -0.0610   -3.8074 C   0  0  0  0  0  0
   16.0740   -1.3968   -4.1974 C   0  0  0  0  0  0
   15.6072   -2.3798   -3.3204 C   0  0  0  0  0  0
   15.2263   -2.0675   -2.0076 C   0  0  0  0  0  0
   14.7053   -3.1425   -1.0366 C   0  0  1  0  0  0
   14.8079   -4.6656   -1.3339 C   0  0  0  0  0  0
   15.6351   -5.4466   -2.3524 C   0  0  0  0  0  0
   16.0514   -5.4400   -0.9267 C   0  0  0  0  0  0
   15.2611   -2.9163    0.2839 N   0  3  0  0  0  0
   14.3198   -2.5183    1.1166 C   0  0  0  0  0  0
   14.5847   -2.2174    2.3640 N   0  0  0  0  0  0
   13.1074   -2.4621    0.5714 N   0  0  0  0  0  0
   11.8634   -2.0338    1.2106 C   0  0  0  0  0  0
   13.2372   -2.8115   -0.7837 C   0  0  0  0  0  0
   12.3120   -2.8161   -1.5881 O   0  0  0  0  0  0
   15.2206   -0.6936   -1.6385 C   0  0  0  0  0  0
   15.7846    2.4440   -1.2362 C   0  0  0  0  0  0
   14.7487    6.3063    2.7648 H   0  0  0  0  0  0
   16.1848    5.3232    3.1636 H   0  0  0  0  0  0
   14.5835    4.5848    3.2174 H   0  0  0  0  0  0
   14.2227    5.3830   -1.9952 H   0  0  0  0  0  0
   14.1703    1.8976   -4.1503 H   0  0  0  0  0  0
   16.3937    0.6856   -4.5234 H   0  0  0  0  0  0
   16.3816   -1.6639   -5.1976 H   0  0  0  0  0  0
   15.5112   -3.3651   -3.7287 H   0  0  0  0  0  0
   13.8789   -5.1868   -1.1107 H   0  0  0  0  0  0
   15.1989   -6.3670   -2.7390 H   0  0  0  0  0  0
   16.3913   -5.0075   -2.9958 H   0  0  0  0  0  0
   16.9396   -4.8581   -0.6840 H   0  0  0  0  0  0
   15.9276   -6.3767   -0.3825 H   0  0  0  0  0  0
   16.2439   -3.0441    0.5395 H   0  0  0  0  0  0
   15.5719   -2.2856    2.7285 H   0  0  0  0  0  0
   11.7925   -0.9478    1.1689 H   0  0  0  0  0  0
   10.9936   -2.4424    0.7005 H   0  0  0  0  0  0
   11.8163   -2.3686    2.2472 H   0  0  0  0  0  0
   14.8431   -0.3941   -0.6722 H   0  0  0  0  0  0
   16.3177    1.9468   -0.4413 H   0  0  0  0  0  0
   13.8094   -2.0753    3.0007 H   0  0  0  0  0  0
  1  2  1  0  0  0
  1 27  1  0  0  0
  1 28  1  0  0  0
  1 29  1  0  0  0
  2  3  3  0  0  0
  3  4  1  0  0  0
  4  5  2  0  0  0
  4 26  1  0  0  0
  5  6  1  0  0  0
  5 30  1  0  0  0
  6  7  2  0  0  0
  7  8  1  0  0  0
  7 31  1  0  0  0
  8  9  1  0  0  0
  8 26  2  0  0  0
  9 10  2  0  0  0
  9 25  1  0  0  0
 10 11  1  0  0  0
 10 32  1  0  0  0
 11 12  2  0  0  0
 11 33  1  0  0  0
 12 13  1  0  0  0
 12 34  1  0  0  0
 13 14  1  0  0  0
 13 25  2  0  0  0
 14 15  1  0  0  0
 14 18  1  0  0  0
 14 23  1  0  0  0
 15 16  1  0  0  0
 15 17  1  0  0  0
 15 35  1  0  0  0
 16 17  1  0  0  0
 16 36  1  0  0  0
 16 37  1  0  0  0
 17 38  1  0  0  0
 17 39  1  0  0  0
 18 19  2  0  0  0
 18 40  1  0  0  0
 19 20  1  0  0  0
 19 21  1  0  0  0
 20 41  1  0  0  0
 20 47  1  0  0  0
 21 22  1  0  0  0
 21 23  1  0  0  0
 22 42  1  0  0  0
 22 43  1  0  0  0
 22 44  1  0  0  0
 23 24  2  0  0  0
 25 45  1  0  0  0
 26 46  1  0  0  0
M  CHG  1  18   1
M  END
> <s_m_entry_id>
1386

> <s_m_entry_name>
Bace_CAT-24.1

> <s_m_Source_Path>
C:\Users\yujiethinkpad\Desktop\05A\BACE

> <s_m_Source_File>
Bace_CAT-24.sdf

> <i_m_Source_File_Index>
1

> <s_i_glide_gridfile>
glide-grid_Bace

> <r_i_docking_score>
-6.849773749117

> <r_i_glide_ecoul>
-12.9773893356323

> <r_i_glide_einternal>
1.29512107372284

> <r_i_glide_emodel>
-46.0567357248003

> <r_i_glide_energy>
-40.2472105026245

> <r_i_glide_erotb>
0.636962919107735

> <r_i_glide_esite>
-0.187619478121295

> <r_i_glide_evdw>
-27.2698211669922

> <r_i_glide_gscore>
-6.849773749117

> <r_i_glide_hbond>
-0.298012055235763

> <r_i_glide_ligand_efficiency>
-0.2634528365045

> <r_i_glide_ligand_efficiency_ln>
-1.60864688903924

> <r_i_glide_ligand_efficiency_sa>
-0.780477991507727

> <r_i_glide_lipo>
-2.44855271712503

> <r_i_glide_metal>
0

> <r_i_glide_rewards>
-1.2424529590482

> <i_i_glide_confnum>
8

> <i_i_glide_lignum>
8

> <i_i_glide_posenum>
126

> <i_i_glide_rotatable_bonds>
4

> <r_i_glide_eff_state_penalty>
0

> <s_m_job_name>
glide-dock_SP_bace_other

> <r_user_dG.exp>
-11.35

> <r_m_Molecular_weight>
345.42772

> <r_glide_shape_similarity>
0.859253942966461

> <s_m_subgroup_title>
glide-dock_SP_bace_other_lib1

> <s_m_subgroupid>
glide-dock_SP_bace_other_lib1

> <b_m_subgroup_collapsed>
0

$$$$
