CAT-17g
                    3D
 Schrodinger Suite 2021-2.
 42 45  0  0  1  0            999 V2000
   11.8336   -2.0743    1.3019 C   0  0  0  0  0  0
   13.0928   -2.4583    0.6703 N   0  0  0  0  0  0
   14.3071   -2.4957    1.2147 C   0  0  0  0  0  0
   14.5849   -2.2484    2.4712 N   0  0  0  0  0  0
   15.2611   -2.8122    0.3629 N   0  3  0  0  0  0
   14.7041   -3.0613   -0.9391 C   0  0  1  0  0  0
   15.2137   -1.9831   -1.9153 C   0  0  0  0  0  0
   15.6640   -2.2945   -3.2045 C   0  0  0  0  0  0
   16.0691   -1.2884   -4.0849 C   0  0  0  0  0  0
   16.0032    0.0544   -3.7112 C   0  0  0  0  0  0
   15.5554    0.4200   -2.4375 C   0  0  0  0  0  0
   15.3880    1.8427   -2.1211 C   0  0  0  0  0  0
   14.6104    2.6394   -2.9736 C   0  0  0  0  0  0
   14.3477    3.9419   -2.7831 N   0  0  0  0  0  0
   14.8186    4.5083   -1.6654 C   0  0  0  0  0  0
   15.5741    3.8085   -0.7305 C   0  0  0  0  0  0
   15.8865    4.3965    0.4374 F   0  0  0  0  0  0
   15.9232    2.4760   -0.9907 C   0  0  0  0  0  0
   15.1855   -0.6077   -1.5441 C   0  0  0  0  0  0
   14.8809   -4.5827   -1.1302 C   0  0  0  0  0  0
   14.6047   -5.4007   -2.3590 C   0  0  0  0  0  0
   16.0194   -5.2861   -1.8242 C   0  0  0  0  0  0
   13.2303   -2.7792   -0.6937 C   0  0  0  0  0  0
   12.3130   -2.7948   -1.5075 O   0  0  0  0  0  0
   10.9936   -2.5878    0.8399 H   0  0  0  0  0  0
   11.8189   -2.3212    2.3607 H   0  0  0  0  0  0
   11.6873   -1.0061    1.1661 H   0  0  0  0  0  0
   15.5897   -2.2888    2.7939 H   0  0  0  0  0  0
   16.2420   -2.9572    0.6145 H   0  0  0  0  0  0
   15.7008   -3.2999   -3.5781 H   0  0  0  0  0  0
   16.4129   -1.5451   -5.0773 H   0  0  0  0  0  0
   16.2934    0.8118   -4.4263 H   0  0  0  0  0  0
   14.1752    2.2143   -3.8653 H   0  0  0  0  0  0
   14.5469    5.5387   -1.4945 H   0  0  0  0  0  0
   16.5258    1.9322   -0.2803 H   0  0  0  0  0  0
   14.8234   -0.3208   -0.5665 H   0  0  0  0  0  0
   14.5654   -5.1070   -0.2272 H   0  0  0  0  0  0
   14.0944   -6.3517   -2.2163 H   0  0  0  0  0  0
   14.3355   -4.8822   -3.2764 H   0  0  0  0  0  0
   16.7492   -4.7056   -2.3812 H   0  0  0  0  0  0
   16.4362   -6.1683   -1.3462 H   0  0  0  0  0  0
   13.8173   -2.1467    3.1249 H   0  0  0  0  0  0
  1  2  1  0  0  0
  1 25  1  0  0  0
  1 26  1  0  0  0
  1 27  1  0  0  0
  2  3  1  0  0  0
  2 23  1  0  0  0
  3  4  1  0  0  0
  3  5  2  0  0  0
  4 28  1  0  0  0
  4 42  1  0  0  0
  5  6  1  0  0  0
  5 29  1  0  0  0
  6  7  1  0  0  0
  6 20  1  0  0  0
  6 23  1  0  0  0
  7  8  2  0  0  0
  7 19  1  0  0  0
  8  9  1  0  0  0
  8 30  1  0  0  0
  9 10  2  0  0  0
  9 31  1  0  0  0
 10 11  1  0  0  0
 10 32  1  0  0  0
 11 12  1  0  0  0
 11 19  2  0  0  0
 12 13  2  0  0  0
 12 18  1  0  0  0
 13 14  1  0  0  0
 13 33  1  0  0  0
 14 15  2  0  0  0
 15 16  1  0  0  0
 15 34  1  0  0  0
 16 18  2  0  0  0
 16 17  1  0  0  0
 18 35  1  0  0  0
 19 36  1  0  0  0
 20 21  1  0  0  0
 20 22  1  0  0  0
 20 37  1  0  0  0
 21 22  1  0  0  0
 21 38  1  0  0  0
 21 39  1  0  0  0
 22 40  1  0  0  0
 22 41  1  0  0  0
 23 24  2  0  0  0
M  CHG  1   5   1
M  END
> <s_m_entry_id>
1396

> <s_m_entry_name>
Bace_CAT-17g.1

> <s_m_Source_Path>
C:\Users\yujiethinkpad\Desktop\05A\BACE

> <s_m_Source_File>
Bace_CAT-17g.sdf

> <i_m_Source_File_Index>
1

> <s_i_glide_gridfile>
glide-grid_Bace

> <r_i_docking_score>
-6.68980853248537

> <r_i_glide_ecoul>
-14.8389835357666

> <r_i_glide_einternal>
1.13686347007751

> <r_i_glide_emodel>
-36.7229176532534

> <r_i_glide_energy>
-31.356725692749

> <r_i_glide_erotb>
0.531087699202664

> <r_i_glide_esite>
-0.191349665386768

> <r_i_glide_evdw>
-16.5177421569824

> <r_i_glide_gscore>
-6.68980853248537

> <r_i_glide_hbond>
-0.275324618725554

> <r_i_glide_ligand_efficiency>
-0.27874202218689

> <r_i_glide_ligand_efficiency_ln>
-1.60117815713453

> <r_i_glide_ligand_efficiency_sa>
-0.80403112259957

> <r_i_glide_lipo>
-1.85242976436524

> <r_i_glide_metal>
0

> <r_i_glide_rewards>
-1.85005754499636

> <i_i_glide_confnum>
6

> <i_i_glide_lignum>
5

> <i_i_glide_posenum>
258

> <i_i_glide_rotatable_bonds>
3

> <r_i_glide_eff_state_penalty>
0

> <s_m_job_name>
glide-dock_SP_bace_other

> <r_user_dG.exp>
-9.743

> <r_m_Molecular_weight>
325.36876

> <r_glide_shape_similarity>
0.8681281208992

> <s_m_subgroup_title>
glide-dock_SP_bace_other_lib1

> <s_m_subgroupid>
glide-dock_SP_bace_other_lib1

> <b_m_subgroup_collapsed>
0

$$$$
