CAT-4d
                    3D
 Schrodinger Suite 2021-2.
 53 56  0  0  1  0            999 V2000
   15.0864    4.9982    2.4781 C   0  0  0  0  0  0
   14.9855    5.1151    0.9571 C   0  0  0  0  0  0
   15.8369    4.1419    0.3612 O   0  0  0  0  0  0
   15.4792    3.7350   -0.8994 C   0  0  0  0  0  0
   14.7025    4.5126   -1.7974 C   0  0  0  0  0  0
   14.1833    3.9130   -2.9619 C   0  0  0  0  0  0
   14.4705    2.5575   -3.2362 C   0  0  0  0  0  0
   15.2991    1.8027   -2.3727 C   0  0  0  0  0  0
   15.5326    0.3767   -2.5919 C   0  0  0  0  0  0
   16.0526   -0.0541   -3.8280 C   0  0  0  0  0  0
   16.1520   -1.4276   -4.1047 C   0  0  0  0  0  0
   15.7024   -2.3725   -3.1659 C   0  0  0  0  0  0
   15.2033   -1.9666   -1.8997 C   0  0  0  0  0  0
   14.6162   -2.9996   -0.9107 C   0  0  1  0  0  0
   14.8571   -4.4814   -1.3061 C   0  0  0  0  0  0
   13.8055   -5.3577   -1.6934 C   0  0  0  0  0  0
   14.0667   -6.7115   -1.9723 C   0  0  0  0  0  0
   15.3810   -7.2032   -1.8906 C   0  0  0  0  0  0
   16.4408   -6.3492   -1.5327 C   0  0  0  0  0  0
   16.1800   -4.9981   -1.2299 C   0  0  0  0  0  0
   15.0779   -2.8293    0.4744 N   0  3  0  0  0  0
   14.0442   -2.6603    1.3109 C   0  0  0  0  0  0
   14.1860   -2.6807    2.6361 N   0  0  0  0  0  0
   12.8779   -2.4974    0.6719 N   0  0  0  0  0  0
   11.5580   -2.1863    1.2565 C   0  0  0  0  0  0
   13.1132   -2.6698   -0.7219 C   0  0  0  0  0  0
   12.2416   -2.5720   -1.5918 O   0  0  0  0  0  0
   15.1638   -0.5774   -1.6076 C   0  0  0  0  0  0
   15.8293    2.4194   -1.2359 C   0  0  0  0  0  0
   14.6143    5.8422    2.9710 H   0  0  0  0  0  0
   16.1342    4.9285    2.7625 H   0  0  0  0  0  0
   14.6032    4.0867    2.8247 H   0  0  0  0  0  0
   13.9388    4.9991    0.6687 H   0  0  0  0  0  0
   15.3343    6.0860    0.6189 H   0  0  0  0  0  0
   14.4456    5.5410   -1.5845 H   0  0  0  0  0  0
   13.5585    4.4818   -3.6363 H   0  0  0  0  0  0
   14.0472    2.0939   -4.1156 H   0  0  0  0  0  0
   16.3533    0.6649   -4.5745 H   0  0  0  0  0  0
   16.5592   -1.7619   -5.0448 H   0  0  0  0  0  0
   15.7479   -3.4138   -3.4471 H   0  0  0  0  0  0
   12.7788   -5.0343   -1.7740 H   0  0  0  0  0  0
   13.2621   -7.3769   -2.2476 H   0  0  0  0  0  0
   15.5818   -8.2336   -2.1016 H   0  0  0  0  0  0
   17.4500   -6.7287   -1.4662 H   0  0  0  0  0  0
   16.9956   -4.3531   -0.9315 H   0  0  0  0  0  0
   16.0409   -3.0222    0.7635 H   0  0  0  0  0  0
   15.1682   -2.7042    2.9567 H   0  0  0  0  0  0
   11.3692   -1.1188    1.1549 H   0  0  0  0  0  0
   10.7622   -2.7166    0.7287 H   0  0  0  0  0  0
   11.5052   -2.4669    2.3092 H   0  0  0  0  0  0
   14.7665   -0.2317   -0.6659 H   0  0  0  0  0  0
   16.4008    1.8355   -0.5323 H   0  0  0  0  0  0
   13.4197   -2.4214    3.2653 H   0  0  0  0  0  0
  1  2  1  0  0  0
  1 30  1  0  0  0
  1 31  1  0  0  0
  1 32  1  0  0  0
  2  3  1  0  0  0
  2 33  1  0  0  0
  2 34  1  0  0  0
  3  4  1  0  0  0
  4  5  2  0  0  0
  4 29  1  0  0  0
  5  6  1  0  0  0
  5 35  1  0  0  0
  6  7  2  0  0  0
  6 36  1  0  0  0
  7  8  1  0  0  0
  7 37  1  0  0  0
  8  9  1  0  0  0
  8 29  2  0  0  0
  9 10  2  0  0  0
  9 28  1  0  0  0
 10 11  1  0  0  0
 10 38  1  0  0  0
 11 12  2  0  0  0
 11 39  1  0  0  0
 12 13  1  0  0  0
 12 40  1  0  0  0
 13 14  1  0  0  0
 13 28  2  0  0  0
 14 15  1  0  0  0
 14 21  1  0  0  0
 14 26  1  0  0  0
 15 16  2  0  0  0
 15 20  1  0  0  0
 16 17  1  0  0  0
 16 41  1  0  0  0
 17 18  2  0  0  0
 17 42  1  0  0  0
 18 19  1  0  0  0
 18 43  1  0  0  0
 19 20  2  0  0  0
 19 44  1  0  0  0
 20 45  1  0  0  0
 21 22  2  0  0  0
 21 46  1  0  0  0
 22 23  1  0  0  0
 22 24  1  0  0  0
 23 47  1  0  0  0
 23 53  1  0  0  0
 24 25  1  0  0  0
 24 26  1  0  0  0
 25 48  1  0  0  0
 25 49  1  0  0  0
 25 50  1  0  0  0
 26 27  2  0  0  0
 28 51  1  0  0  0
 29 52  1  0  0  0
M  CHG  1  21   1
M  END
> <s_m_entry_id>
1387

> <s_m_entry_name>
Bace_CAT-4d.1

> <s_m_Source_Path>
C:\Users\yujiethinkpad\Desktop\05A\BACE

> <s_m_Source_File>
Bace_CAT-4d.sdf

> <i_m_Source_File_Index>
1

> <s_i_glide_gridfile>
glide-grid_Bace

> <r_i_docking_score>
-6.81973340129489

> <r_i_glide_ecoul>
-9.49836254119873

> <r_i_glide_einternal>
3.01542329788208

> <r_i_glide_emodel>
-49.3285029931462

> <r_i_glide_energy>
-42.0148763656616

> <r_i_glide_erotb>
0.521268842928741

> <r_i_glide_esite>
-0.127540138981502

> <r_i_glide_evdw>
-32.5165138244629

> <r_i_glide_gscore>
-6.81973340129489

> <r_i_glide_hbond>
-0.4

> <r_i_glide_ligand_efficiency>
-0.235163220734307

> <r_i_glide_ligand_efficiency_ln>
-1.56154601537859

> <r_i_glide_ligand_efficiency_sa>
-0.722495919033533

> <r_i_glide_lipo>
-2.76116889041173

> <r_i_glide_metal>
0

> <r_i_glide_rewards>
-1.00171314242744

> <i_i_glide_confnum>
36

> <i_i_glide_lignum>
12

> <i_i_glide_posenum>
353

> <i_i_glide_rotatable_bonds>
5

> <r_i_glide_eff_state_penalty>
0

> <s_m_job_name>
glide-dock_SP_bace_other

> <r_user_dG.exp>
-9.113

> <r_m_Molecular_weight>
386.47778

> <r_glide_shape_similarity>
0.889063000679016

> <s_m_subgroup_title>
glide-dock_SP_bace_other_lib1

> <s_m_subgroupid>
glide-dock_SP_bace_other_lib1

> <b_m_subgroup_collapsed>
0

$$$$
