CAT-13j
                    3D
 Schrodinger Suite 2021-2.
 45 48  0  0  1  0            999 V2000
   11.7854   -2.4430    1.4762 C   0  0  0  0  0  0
   13.0574   -2.5872    0.7531 N   0  0  0  0  0  0
   14.2954   -2.6560    1.2800 C   0  0  0  0  0  0
   14.5835   -2.5934    2.5716 N   0  0  0  0  0  0
   15.2538   -2.8230    0.3714 N   0  3  0  0  0  0
   14.6638   -3.0090   -0.9542 C   0  0  1  0  0  0
   15.1972   -1.9348   -1.9205 C   0  0  0  0  0  0
   15.6679   -2.2959   -3.2076 C   0  0  0  0  0  0
   16.1044   -1.3078   -4.1103 C   0  0  0  0  0  0
   16.0517    0.0517   -3.7491 C   0  0  0  0  0  0
   15.5724    0.4526   -2.4784 C   0  0  0  0  0  0
   15.3514    1.8969   -2.2255 C   0  0  0  0  0  0
   14.5646    2.6221   -3.1594 C   0  0  0  0  0  0
   14.1856    3.9646   -2.9293 C   0  0  0  0  0  0
   14.5648    4.5963   -1.7311 C   0  0  0  0  0  0
   15.3077    3.8759   -0.7725 C   0  0  0  0  0  0
   15.3850    4.5147    0.8335 Cl  0  0  0  0  0  0
   15.7850    2.5687   -1.0563 C   0  0  0  0  0  0
   15.1780   -0.5540   -1.5554 C   0  0  0  0  0  0
   14.9030   -4.4927   -1.3534 C   0  0  0  0  0  0
   16.2197   -5.0127   -1.2761 C   0  0  0  0  0  0
   16.4441   -6.3773   -1.5441 C   0  0  0  0  0  0
   15.3467   -7.1932   -1.8833 C   0  0  0  0  0  0
   14.0680   -6.5992   -1.9530 C   0  0  0  0  0  0
   13.8469   -5.2852   -1.6960 N   0  0  0  0  0  0
   13.1724   -2.7162   -0.6585 C   0  0  0  0  0  0
   12.2368   -2.6077   -1.4567 O   0  0  0  0  0  0
   11.7858   -1.4852    1.9633 H   0  0  0  0  0  0
   10.9196   -2.4945    0.8146 H   0  0  0  0  0  0
   11.6881   -3.2202    2.2344 H   0  0  0  0  0  0
   15.5955   -2.5816    2.8927 H   0  0  0  0  0  0
   16.2475   -2.9764    0.5983 H   0  0  0  0  0  0
   15.6900   -3.3263   -3.5307 H   0  0  0  0  0  0
   16.4592   -1.5869   -5.0919 H   0  0  0  0  0  0
   16.3523    0.7952   -4.4741 H   0  0  0  0  0  0
   14.2167    2.1345   -4.0587 H   0  0  0  0  0  0
   13.5828    4.4925   -3.6534 H   0  0  0  0  0  0
   14.2085    5.5926   -1.5108 H   0  0  0  0  0  0
   16.3119    2.0195   -0.2918 H   0  0  0  0  0  0
   14.7918   -0.2518   -0.5922 H   0  0  0  0  0  0
   17.0487   -4.3786   -0.9944 H   0  0  0  0  0  0
   17.4388   -6.7925   -1.4736 H   0  0  0  0  0  0
   15.4741   -8.2477   -2.0748 H   0  0  0  0  0  0
   13.2018   -7.1918   -2.2047 H   0  0  0  0  0  0
   13.8240   -2.4771    3.2382 H   0  0  0  0  0  0
  1  2  1  0  0  0
  1 28  1  0  0  0
  1 29  1  0  0  0
  1 30  1  0  0  0
  2  3  1  0  0  0
  2 26  1  0  0  0
  3  4  1  0  0  0
  3  5  2  0  0  0
  4 31  1  0  0  0
  4 45  1  0  0  0
  5  6  1  0  0  0
  5 32  1  0  0  0
  6  7  1  0  0  0
  6 20  1  0  0  0
  6 26  1  0  0  0
  7  8  2  0  0  0
  7 19  1  0  0  0
  8  9  1  0  0  0
  8 33  1  0  0  0
  9 10  2  0  0  0
  9 34  1  0  0  0
 10 11  1  0  0  0
 10 35  1  0  0  0
 11 12  1  0  0  0
 11 19  2  0  0  0
 12 13  2  0  0  0
 12 18  1  0  0  0
 13 14  1  0  0  0
 13 36  1  0  0  0
 14 15  2  0  0  0
 14 37  1  0  0  0
 15 16  1  0  0  0
 15 38  1  0  0  0
 16 17  1  0  0  0
 16 18  2  0  0  0
 18 39  1  0  0  0
 19 40  1  0  0  0
 20 21  2  0  0  0
 20 25  1  0  0  0
 21 22  1  0  0  0
 21 41  1  0  0  0
 22 23  2  0  0  0
 22 42  1  0  0  0
 23 24  1  0  0  0
 23 43  1  0  0  0
 24 25  2  0  0  0
 24 44  1  0  0  0
 26 27  2  0  0  0
M  CHG  1   5   1
M  END
> <s_m_entry_id>
1390

> <s_m_entry_name>
Bace_CAT-13j.1

> <s_m_Source_Path>
C:\Users\yujiethinkpad\Desktop\05A\BACE

> <s_m_Source_File>
Bace_CAT-13j.sdf

> <i_m_Source_File_Index>
1

> <s_i_glide_gridfile>
glide-grid_Bace

> <r_i_docking_score>
-6.7586934751736

> <r_i_glide_ecoul>
-13.6067371368408

> <r_i_glide_einternal>
2.37994885444641

> <r_i_glide_emodel>
-52.6764379685759

> <r_i_glide_energy>
-39.1700782775879

> <r_i_glide_erotb>
0.407083485992964

> <r_i_glide_esite>
-0.192685160158664

> <r_i_glide_evdw>
-25.5633411407471

> <r_i_glide_gscore>
-6.7586934751736

> <r_i_glide_hbond>
-0.267639221907591

> <r_i_glide_ligand_efficiency>
-0.250321980561985

> <r_i_glide_ligand_efficiency_ln>
-1.57331241525008

> <r_i_glide_ligand_efficiency_sa>
-0.750965940860935

> <r_i_glide_lipo>
-2.28326037878837

> <r_i_glide_metal>
0

> <r_i_glide_rewards>
-1.10301457274846

> <i_i_glide_confnum>
4

> <i_i_glide_lignum>
29

> <i_i_glide_posenum>
259

> <i_i_glide_rotatable_bonds>
3

> <r_i_glide_eff_state_penalty>
0

> <s_m_job_name>
glide-dock_SP_bace_other

> <r_user_dG.exp>
-8.733

> <r_m_Molecular_weight>
377.85681

> <r_glide_shape_similarity>
0.942018687725067

> <s_m_subgroup_title>
glide-dock_SP_bace_other_lib1

> <s_m_subgroupid>
glide-dock_SP_bace_other_lib1

> <b_m_subgroup_collapsed>
0

$$$$
