CAT-13g
                    3D
 Schrodinger Suite 2021-2.
 52 55  0  0  1  0            999 V2000
   11.8562   -2.0914    1.1730 C   0  0  0  0  0  0
   13.1428   -2.4881    0.5600 N   0  0  0  0  0  0
   14.3600   -2.4674    1.1298 C   0  0  0  0  0  0
   14.5819   -2.1859    2.3910 N   0  0  0  0  0  0
   15.3765   -2.7813    0.3214 N   0  3  0  0  0  0
   14.8326   -3.1180   -1.0045 C   0  0  1  0  0  0
   15.2575   -2.0104   -2.0059 C   0  0  0  0  0  0
   15.5103   -2.2935   -3.3735 C   0  0  0  0  0  0
   15.8801   -1.2685   -4.2705 C   0  0  0  0  0  0
   15.9326    0.0698   -3.8322 C   0  0  0  0  0  0
   15.5692    0.3999   -2.5076 C   0  0  0  0  0  0
   15.3488    1.8070   -2.1400 C   0  0  0  0  0  0
   16.3997    2.7013   -1.8762 C   0  0  0  0  0  0
   16.1422    4.0117   -1.4340 C   0  0  0  0  0  0
   14.8254    4.5110   -1.4054 C   0  0  0  0  0  0
   13.7614    3.6464   -1.7726 C   0  0  0  0  0  0
   12.1211    4.1934   -1.8860 Cl  0  0  0  0  0  0
   14.0296    2.3014   -2.1082 C   0  0  0  0  0  0
   15.2796   -0.6430   -1.5914 C   0  0  0  0  0  0
   15.2879   -4.6199   -1.2206 C   0  0  0  0  0  0
   14.3148   -5.6565   -1.8574 C   0  0  0  0  0  0
   14.8567   -7.0844   -1.5732 C   0  0  0  0  0  0
   16.3092   -7.2717   -2.0875 C   0  0  0  0  0  0
   17.2659   -6.1809   -1.6018 C   0  0  0  0  0  0
   16.7049   -4.7718   -1.8295 C   0  0  0  0  0  0
   13.3123   -2.9326   -0.7844 C   0  0  0  0  0  0
   12.4005   -3.0792   -1.6033 O   0  0  0  0  0  0
   11.7788   -1.0045    1.1567 H   0  0  0  0  0  0
   11.0087   -2.4908    0.6129 H   0  0  0  0  0  0
   11.7810   -2.4485    2.2030 H   0  0  0  0  0  0
   15.5737   -2.2849    2.7583 H   0  0  0  0  0  0
   16.3507   -2.9349    0.6283 H   0  0  0  0  0  0
   15.3963   -3.2878   -3.7746 H   0  0  0  0  0  0
   16.0731   -1.5076   -5.3069 H   0  0  0  0  0  0
   16.1600    0.8507   -4.5415 H   0  0  0  0  0  0
   17.4081    2.3740   -2.0426 H   0  0  0  0  0  0
   16.9848    4.6294   -1.1991 H   0  0  0  0  0  0
   14.6282    5.5333   -1.1233 H   0  0  0  0  0  0
   13.2097    1.6473   -2.3635 H   0  0  0  0  0  0
   15.0075   -0.3727   -0.5820 H   0  0  0  0  0  0
   15.4171   -5.0164   -0.2099 H   0  0  0  0  0  0
   14.2181   -5.4822   -2.9301 H   0  0  0  0  0  0
   13.3143   -5.5878   -1.4304 H   0  0  0  0  0  0
   14.1915   -7.8421   -1.9827 H   0  0  0  0  0  0
   14.8516   -7.2582   -0.4968 H   0  0  0  0  0  0
   16.3134   -7.2891   -3.1723 H   0  0  0  0  0  0
   16.7567   -8.2234   -1.7854 H   0  0  0  0  0  0
   18.1878   -6.3023   -2.1591 H   0  0  0  0  0  0
   17.5090   -6.3245   -0.5569 H   0  0  0  0  0  0
   17.3832   -4.0188   -1.4301 H   0  0  0  0  0  0
   16.6767   -4.6321   -2.9011 H   0  0  0  0  0  0
   13.7951   -2.0789    3.0302 H   0  0  0  0  0  0
  1  2  1  0  0  0
  1 28  1  0  0  0
  1 29  1  0  0  0
  1 30  1  0  0  0
  2  3  1  0  0  0
  2 26  1  0  0  0
  3  4  1  0  0  0
  3  5  2  0  0  0
  4 31  1  0  0  0
  4 52  1  0  0  0
  5  6  1  0  0  0
  5 32  1  0  0  0
  6  7  1  0  0  0
  6 20  1  0  0  0
  6 26  1  0  0  0
  7  8  2  0  0  0
  7 19  1  0  0  0
  8  9  1  0  0  0
  8 33  1  0  0  0
  9 10  2  0  0  0
  9 34  1  0  0  0
 10 11  1  0  0  0
 10 35  1  0  0  0
 11 12  1  0  0  0
 11 19  2  0  0  0
 12 13  2  0  0  0
 12 18  1  0  0  0
 13 14  1  0  0  0
 13 36  1  0  0  0
 14 15  2  0  0  0
 14 37  1  0  0  0
 15 16  1  0  0  0
 15 38  1  0  0  0
 16 17  1  0  0  0
 16 18  2  0  0  0
 18 39  1  0  0  0
 19 40  1  0  0  0
 20 21  1  0  0  0
 20 25  1  0  0  0
 20 41  1  0  0  0
 21 22  1  0  0  0
 21 42  1  0  0  0
 21 43  1  0  0  0
 22 23  1  0  0  0
 22 44  1  0  0  0
 22 45  1  0  0  0
 23 24  1  0  0  0
 23 46  1  0  0  0
 23 47  1  0  0  0
 24 25  1  0  0  0
 24 48  1  0  0  0
 24 49  1  0  0  0
 25 50  1  0  0  0
 25 51  1  0  0  0
 26 27  2  0  0  0
M  CHG  1   5   1
M  END
> <s_m_entry_id>
1391

> <s_m_entry_name>
Bace_CAT-13g.1

> <s_m_Source_Path>
C:\Users\yujiethinkpad\Desktop\05A\BACE

> <s_m_Source_File>
Bace_CAT-13g.sdf

> <i_m_Source_File_Index>
1

> <s_i_glide_gridfile>
glide-grid_Bace

> <r_i_docking_score>
-6.7246455867937

> <r_i_glide_ecoul>
-13.704906463623

> <r_i_glide_einternal>
2.68858695030212

> <r_i_glide_emodel>
-44.3139613723848

> <r_i_glide_energy>
-37.3148555755615

> <r_i_glide_erotb>
0.3974956338304

> <r_i_glide_esite>
-0.18904144861463

> <r_i_glide_evdw>
-23.6099491119385

> <r_i_glide_gscore>
-6.7246455867937

> <r_i_glide_hbond>
-0.290399615680134

> <r_i_glide_ligand_efficiency>
-0.249060947659026

> <r_i_glide_ligand_efficiency_ln>
-1.56538662815855

> <r_i_glide_ligand_efficiency_sa>
-0.747182842156213

> <r_i_glide_lipo>
-2.26831982711056

> <r_i_glide_metal>
0

> <r_i_glide_rewards>
-1.13814690407839

> <i_i_glide_confnum>
20

> <i_i_glide_lignum>
26

> <i_i_glide_posenum>
279

> <i_i_glide_rotatable_bonds>
3

> <r_i_glide_eff_state_penalty>
0

> <s_m_job_name>
glide-dock_SP_bace_other

> <r_user_dG.exp>
-9.093

> <r_m_Molecular_weight>
382.91705

> <r_glide_shape_similarity>
0.885966241359711

> <s_m_subgroup_title>
glide-dock_SP_bace_other_lib1

> <s_m_subgroupid>
glide-dock_SP_bace_other_lib1

> <b_m_subgroup_collapsed>
0

$$$$
