CAT-13e
                    3D
 Schrodinger Suite 2021-2.
 46 49  0  0  1  0            999 V2000
   11.8442   -2.1422    1.3386 C   0  0  0  0  0  0
   13.0882   -2.4720    0.6562 N   0  0  0  0  0  0
   14.3078   -2.4941    1.1837 C   0  0  0  0  0  0
   14.5849   -2.2335    2.4293 N   0  0  0  0  0  0
   15.2647   -2.8019    0.3379 N   0  3  0  0  0  0
   14.6907   -3.0445   -0.9567 C   0  0  1  0  0  0
   15.2115   -1.9769   -1.9257 C   0  0  0  0  0  0
   15.6738   -2.3165   -3.2027 C   0  0  0  0  0  0
   16.0950   -1.3255   -4.0938 C   0  0  0  0  0  0
   16.0418    0.0214   -3.7332 C   0  0  0  0  0  0
   15.5713    0.4082   -2.4735 C   0  0  0  0  0  0
   15.3500    1.8346   -2.2299 C   0  0  0  0  0  0
   14.5637    2.5265   -3.1660 C   0  0  0  0  0  0
   14.1870    3.8604   -2.9668 C   0  0  0  0  0  0
   14.5679    4.5132   -1.7960 C   0  0  0  0  0  0
   15.3059    3.8213   -0.8354 C   0  0  0  0  0  0
   15.3856    4.5148    0.7308 Cl  0  0  0  0  0  0
   15.7849    2.5213   -1.0863 C   0  0  0  0  0  0
   15.1844   -0.5991   -1.5663 C   0  0  0  0  0  0
   14.8723   -4.5627   -1.1723 C   0  0  0  0  0  0
   14.2583   -5.4033   -2.2908 C   0  0  0  0  0  0
   15.4134   -6.3902   -2.0905 C   0  0  0  0  0  0
   16.2102   -5.2336   -1.4798 C   0  0  0  0  0  0
   13.2168   -2.7671   -0.7088 C   0  0  0  0  0  0
   12.2950   -2.7751   -1.5175 O   0  0  0  0  0  0
   11.8672   -1.0853    1.5617 H   0  0  0  0  0  0
   10.9659   -2.3465    0.7246 H   0  0  0  0  0  0
   11.7516   -2.7028    2.2691 H   0  0  0  0  0  0
   15.5843   -2.2853    2.7633 H   0  0  0  0  0  0
   16.2457   -2.9526    0.5855 H   0  0  0  0  0  0
   15.7102   -3.3386   -3.5376 H   0  0  0  0  0  0
   16.4484   -1.5992   -5.0775 H   0  0  0  0  0  0
   16.3403    0.7664   -4.4578 H   0  0  0  0  0  0
   14.2100    2.0216   -4.0535 H   0  0  0  0  0  0
   13.5730    4.3684   -3.6963 H   0  0  0  0  0  0
   14.2109    5.5138   -1.5976 H   0  0  0  0  0  0
   16.3175    1.9905   -0.3128 H   0  0  0  0  0  0
   14.7989   -0.2961   -0.6028 H   0  0  0  0  0  0
   14.5229   -5.0533   -0.2569 H   0  0  0  0  0  0
   14.2679   -4.9255   -3.2702 H   0  0  0  0  0  0
   13.2717   -5.8106   -2.0658 H   0  0  0  0  0  0
   15.8290   -6.7957   -3.0146 H   0  0  0  0  0  0
   15.1828   -7.1780   -1.3708 H   0  0  0  0  0  0
   16.7966   -5.4999   -0.5994 H   0  0  0  0  0  0
   16.8220   -4.7036   -2.2089 H   0  0  0  0  0  0
   13.8163   -2.1244    3.0800 H   0  0  0  0  0  0
  1  2  1  0  0  0
  1 26  1  0  0  0
  1 27  1  0  0  0
  1 28  1  0  0  0
  2  3  1  0  0  0
  2 24  1  0  0  0
  3  4  1  0  0  0
  3  5  2  0  0  0
  4 29  1  0  0  0
  4 46  1  0  0  0
  5  6  1  0  0  0
  5 30  1  0  0  0
  6  7  1  0  0  0
  6 20  1  0  0  0
  6 24  1  0  0  0
  7  8  2  0  0  0
  7 19  1  0  0  0
  8  9  1  0  0  0
  8 31  1  0  0  0
  9 10  2  0  0  0
  9 32  1  0  0  0
 10 11  1  0  0  0
 10 33  1  0  0  0
 11 12  1  0  0  0
 11 19  2  0  0  0
 12 13  2  0  0  0
 12 18  1  0  0  0
 13 14  1  0  0  0
 13 34  1  0  0  0
 14 15  2  0  0  0
 14 35  1  0  0  0
 15 16  1  0  0  0
 15 36  1  0  0  0
 16 17  1  0  0  0
 16 18  2  0  0  0
 18 37  1  0  0  0
 19 38  1  0  0  0
 20 21  1  0  0  0
 20 23  1  0  0  0
 20 39  1  0  0  0
 21 22  1  0  0  0
 21 40  1  0  0  0
 21 41  1  0  0  0
 22 23  1  0  0  0
 22 42  1  0  0  0
 22 43  1  0  0  0
 23 44  1  0  0  0
 23 45  1  0  0  0
 24 25  2  0  0  0
M  CHG  1   5   1
M  END
> <s_m_entry_id>
1398

> <s_m_entry_name>
Bace_CAT-13e.1

> <s_m_Source_Path>
C:\Users\yujiethinkpad\Desktop\05A\BACE

> <s_m_Source_File>
Bace_CAT-13e.sdf

> <i_m_Source_File_Index>
1

> <s_i_glide_gridfile>
glide-grid_Bace

> <r_i_docking_score>
-6.6356325020934

> <r_i_glide_ecoul>
-13.7787628173828

> <r_i_glide_einternal>
0.960438787937164

> <r_i_glide_emodel>
-44.9340148843489

> <r_i_glide_energy>
-35.7280445098877

> <r_i_glide_erotb>
0.455373679783367

> <r_i_glide_esite>
-0.190491577092301

> <r_i_glide_evdw>
-21.9492816925049

> <r_i_glide_gscore>
-6.6356325020934

> <r_i_glide_hbond>
-0.284508843722327

> <r_i_glide_ligand_efficiency>
-0.265425300083736

> <r_i_glide_ligand_efficiency_ln>
-1.5728437568557

> <r_i_glide_ligand_efficiency_sa>
-0.776108284782585

> <r_i_glide_lipo>
-2.20708352839644

> <r_i_glide_metal>
0

> <r_i_glide_rewards>
-1.24464372543303

> <i_i_glide_confnum>
40

> <i_i_glide_lignum>
24

> <i_i_glide_posenum>
207

> <i_i_glide_rotatable_bonds>
3

> <r_i_glide_eff_state_penalty>
0

> <s_m_job_name>
glide-dock_SP_bace_other

> <r_user_dG.exp>
-9.963

> <r_m_Molecular_weight>
354.86287

> <r_glide_shape_similarity>
0.901652693748474

> <s_m_subgroup_title>
glide-dock_SP_bace_other_lib1

> <s_m_subgroupid>
glide-dock_SP_bace_other_lib1

> <b_m_subgroup_collapsed>
0

$$$$
