CAT-13h
                    3D
 Schrodinger Suite 2021-2.
 46 49  0  0  1  0            999 V2000
   11.9639   -2.0506    1.1892 C   0  0  0  0  0  0
   13.1940   -2.4957    0.5460 N   0  0  0  0  0  0
   14.3919   -2.5454    1.1100 C   0  0  0  0  0  0
   14.5828   -2.2370    2.3648 N   0  0  0  0  0  0
   15.3789   -2.9192    0.3092 N   0  3  0  0  0  0
   14.8330   -3.1331   -1.0236 C   0  0  1  0  0  0
   15.2889   -2.0035   -1.9512 C   0  0  0  0  0  0
   15.7041   -2.3095   -3.2530 C   0  0  0  0  0  0
   16.1000   -1.3022   -4.1316 C   0  0  0  0  0  0
   16.0432    0.0362   -3.7437 C   0  0  0  0  0  0
   15.5842    0.3960   -2.4713 C   0  0  0  0  0  0
   15.3509    1.8241   -2.2252 C   0  0  0  0  0  0
   14.5639    2.5168   -3.1616 C   0  0  0  0  0  0
   14.1952    3.8562   -2.9689 C   0  0  0  0  0  0
   14.5839    4.5119   -1.8027 C   0  0  0  0  0  0
   15.3138    3.8193   -0.8383 C   0  0  0  0  0  0
   15.3866    4.5154    0.7298 Cl  0  0  0  0  0  0
   15.7882    2.5157   -1.0876 C   0  0  0  0  0  0
   15.2384   -0.6325   -1.5652 C   0  0  0  0  0  0
   15.1519   -4.5986   -1.4504 C   0  0  0  0  0  0
   16.6375   -4.9001   -1.3896 C   0  0  0  0  0  0
   14.2596   -5.7668   -1.0618 C   0  0  0  0  0  0
   14.3420   -5.3520   -2.4950 C   0  0  0  0  0  0
   13.3419   -2.8646   -0.7965 C   0  0  0  0  0  0
   12.4223   -2.9070   -1.6065 O   0  0  0  0  0  0
   11.1145   -2.0046    0.5083 H   0  0  0  0  0  0
   11.7107   -2.6973    2.0313 H   0  0  0  0  0  0
   12.1614   -1.0523    1.5619 H   0  0  0  0  0  0
   15.5602   -2.2869    2.7623 H   0  0  0  0  0  0
   16.3489   -3.0752    0.6025 H   0  0  0  0  0  0
   15.7280   -3.3205   -3.6261 H   0  0  0  0  0  0
   16.4270   -1.5510   -5.1295 H   0  0  0  0  0  0
   16.3179    0.7979   -4.4591 H   0  0  0  0  0  0
   14.2059    2.0068   -4.0456 H   0  0  0  0  0  0
   13.5840    4.3658   -3.7001 H   0  0  0  0  0  0
   14.2322    5.5162   -1.6036 H   0  0  0  0  0  0
   16.3190    1.9888   -0.3059 H   0  0  0  0  0  0
   14.8864   -0.3552   -0.5786 H   0  0  0  0  0  0
   16.8598   -5.8668   -1.8360 H   0  0  0  0  0  0
   17.2184   -4.1512   -1.9268 H   0  0  0  0  0  0
   16.9851   -4.9213   -0.3599 H   0  0  0  0  0  0
   14.7470   -6.6997   -0.7868 H   0  0  0  0  0  0
   13.3218   -5.5824   -0.5449 H   0  0  0  0  0  0
   13.4639   -4.8772   -2.9262 H   0  0  0  0  0  0
   14.8768   -6.0129   -3.1747 H   0  0  0  0  0  0
   13.7788   -2.0952    2.9646 H   0  0  0  0  0  0
  1  2  1  0  0  0
  1 26  1  0  0  0
  1 27  1  0  0  0
  1 28  1  0  0  0
  2  3  1  0  0  0
  2 24  1  0  0  0
  3  4  1  0  0  0
  3  5  2  0  0  0
  4 29  1  0  0  0
  4 46  1  0  0  0
  5  6  1  0  0  0
  5 30  1  0  0  0
  6  7  1  0  0  0
  6 20  1  0  0  0
  6 24  1  0  0  0
  7  8  2  0  0  0
  7 19  1  0  0  0
  8  9  1  0  0  0
  8 31  1  0  0  0
  9 10  2  0  0  0
  9 32  1  0  0  0
 10 11  1  0  0  0
 10 33  1  0  0  0
 11 12  1  0  0  0
 11 19  2  0  0  0
 12 13  2  0  0  0
 12 18  1  0  0  0
 13 14  1  0  0  0
 13 34  1  0  0  0
 14 15  2  0  0  0
 14 35  1  0  0  0
 15 16  1  0  0  0
 15 36  1  0  0  0
 16 17  1  0  0  0
 16 18  2  0  0  0
 18 37  1  0  0  0
 19 38  1  0  0  0
 20 21  1  0  0  0
 20 22  1  0  0  0
 20 23  1  0  0  0
 21 39  1  0  0  0
 21 40  1  0  0  0
 21 41  1  0  0  0
 22 23  1  0  0  0
 22 42  1  0  0  0
 22 43  1  0  0  0
 23 44  1  0  0  0
 23 45  1  0  0  0
 24 25  2  0  0  0
M  CHG  1   5   1
M  END
> <s_m_entry_id>
1406

> <s_m_entry_name>
Bace_CAT-13h.1

> <s_m_Source_Path>
C:\Users\yujiethinkpad\Desktop\05A\BACE

> <s_m_Source_File>
Bace_CAT-13h.sdf

> <i_m_Source_File_Index>
1

> <s_i_glide_gridfile>
glide-grid_Bace

> <r_i_docking_score>
-6.48293564107134

> <r_i_glide_ecoul>
-13.6540985107422

> <r_i_glide_einternal>
4.1181640625

> <r_i_glide_emodel>
-42.6740274044507

> <r_i_glide_energy>
-37.1333045959473

> <r_i_glide_erotb>
0.455373679783367

> <r_i_glide_esite>
-0.189025839290681

> <r_i_glide_evdw>
-23.4792060852051

> <r_i_glide_gscore>
-6.48293564107134

> <r_i_glide_hbond>
-0.295553007588798

> <r_i_glide_ligand_efficiency>
-0.259317425642853

> <r_i_glide_ligand_efficiency_ln>
-1.5366500248378

> <r_i_glide_ligand_efficiency_sa>
-0.75824875159383

> <r_i_glide_lipo>
-2.07441167219101

> <r_i_glide_metal>
0

> <r_i_glide_rewards>
-1.15724372091264

> <i_i_glide_confnum>
21

> <i_i_glide_lignum>
27

> <i_i_glide_posenum>
306

> <i_i_glide_rotatable_bonds>
3

> <r_i_glide_eff_state_penalty>
0

> <s_m_job_name>
glide-dock_SP_bace_other

> <r_user_dG.exp>
-9.633

> <r_m_Molecular_weight>
354.86287

> <r_glide_shape_similarity>
0.880375623703003

> <s_m_subgroup_title>
glide-dock_SP_bace_other_lib1

> <s_m_subgroupid>
glide-dock_SP_bace_other_lib1

> <b_m_subgroup_collapsed>
0

$$$$
