CAT-13m
                    3D
 Schrodinger Suite 2021-2.
 44 47  0  0  1  0            999 V2000
   11.8097   -2.1457    1.3604 C   0  0  0  0  0  0
   13.0587   -2.4829    0.6572 N   0  0  0  0  0  0
   14.2942   -2.5134    1.1779 C   0  0  0  0  0  0
   14.5833   -2.2327    2.4250 N   0  0  0  0  0  0
   15.2586   -2.8396    0.3261 N   0  3  0  0  0  0
   14.6861   -3.0537   -1.0013 C   0  0  2  0  0  0
   14.9170   -4.5396   -1.3878 C   0  0  0  0  0  0
   16.2081   -5.1219   -1.2994 C   0  0  0  0  0  0
   16.4280   -6.4335   -1.5528 N   0  0  0  0  0  0
   15.3678   -7.1810   -1.8824 C   0  0  0  0  0  0
   14.1123   -6.7465   -2.0242 N   0  0  0  0  0  0
   13.8837   -5.4332   -1.7914 C   0  0  0  0  0  0
   15.2176   -1.9730   -1.9663 C   0  0  0  0  0  0
   15.6995   -2.3329   -3.2494 C   0  0  0  0  0  0
   16.1465   -1.3403   -4.1471 C   0  0  0  0  0  0
   16.0736    0.0199   -3.7947 C   0  0  0  0  0  0
   15.5849    0.4173   -2.5280 C   0  0  0  0  0  0
   15.3572    1.8587   -2.2811 C   0  0  0  0  0  0
   14.5792    2.5764   -3.2284 C   0  0  0  0  0  0
   14.1858    3.9134   -2.9978 C   0  0  0  0  0  0
   14.5658    4.5533   -1.8042 C   0  0  0  0  0  0
   15.3053    3.8393   -0.8347 C   0  0  0  0  0  0
   15.3870    4.5143    0.7576 Cl  0  0  0  0  0  0
   15.7842    2.5279   -1.1054 C   0  0  0  0  0  0
   15.1901   -0.5894   -1.6056 C   0  0  0  0  0  0
   13.1876   -2.7461   -0.7322 C   0  0  0  0  0  0
   12.2602   -2.6986   -1.5448 O   0  0  0  0  0  0
   11.8258   -1.0830    1.5558 H   0  0  0  0  0  0
   10.9275   -2.3822    0.7615 H   0  0  0  0  0  0
   11.7362   -2.6786    2.3100 H   0  0  0  0  0  0
   15.5863   -2.2852    2.7636 H   0  0  0  0  0  0
   16.2522   -2.9411    0.5793 H   0  0  0  0  0  0
   17.0680   -4.5314   -1.0093 H   0  0  0  0  0  0
   15.5380   -8.2356   -2.0290 H   0  0  0  0  0  0
   12.8565   -5.1262   -1.9052 H   0  0  0  0  0  0
   15.7283   -3.3653   -3.5666 H   0  0  0  0  0  0
   16.5197   -1.6199   -5.1214 H   0  0  0  0  0  0
   16.3714    0.7670   -4.5164 H   0  0  0  0  0  0
   14.2371    2.0913   -4.1289 H   0  0  0  0  0  0
   13.5758    4.4231   -3.7252 H   0  0  0  0  0  0
   14.2083    5.5523   -1.5930 H   0  0  0  0  0  0
   16.3065    1.9753   -0.3367 H   0  0  0  0  0  0
   14.7964   -0.2816   -0.6474 H   0  0  0  0  0  0
   13.8206   -2.1186    3.0887 H   0  0  0  0  0  0
  1  2  1  0  0  0
  1 28  1  0  0  0
  1 29  1  0  0  0
  1 30  1  0  0  0
  2  3  1  0  0  0
  2 26  1  0  0  0
  3  4  1  0  0  0
  3  5  2  0  0  0
  4 31  1  0  0  0
  4 44  1  0  0  0
  5  6  1  0  0  0
  5 32  1  0  0  0
  6  7  1  0  0  0
  6 13  1  0  0  0
  6 26  1  0  0  0
  7  8  2  0  0  0
  7 12  1  0  0  0
  8  9  1  0  0  0
  8 33  1  0  0  0
  9 10  2  0  0  0
 10 11  1  0  0  0
 10 34  1  0  0  0
 11 12  2  0  0  0
 12 35  1  0  0  0
 13 14  2  0  0  0
 13 25  1  0  0  0
 14 15  1  0  0  0
 14 36  1  0  0  0
 15 16  2  0  0  0
 15 37  1  0  0  0
 16 17  1  0  0  0
 16 38  1  0  0  0
 17 18  1  0  0  0
 17 25  2  0  0  0
 18 19  2  0  0  0
 18 24  1  0  0  0
 19 20  1  0  0  0
 19 39  1  0  0  0
 20 21  2  0  0  0
 20 40  1  0  0  0
 21 22  1  0  0  0
 21 41  1  0  0  0
 22 23  1  0  0  0
 22 24  2  0  0  0
 24 42  1  0  0  0
 25 43  1  0  0  0
 26 27  2  0  0  0
M  CHG  1   5   1
M  END
> <s_m_entry_id>
1384

> <s_m_entry_name>
Bace_CAT-13m.1

> <s_m_Source_Path>
C:\Users\yujiethinkpad\Desktop\05A\BACE

> <s_m_Source_File>
Bace_CAT-13m.sdf

> <i_m_Source_File_Index>
1

> <s_i_glide_gridfile>
glide-grid_Bace

> <r_i_docking_score>
-6.9321945705047

> <r_i_glide_ecoul>
-15.1821641921997

> <r_i_glide_einternal>
4.43558120727539

> <r_i_glide_emodel>
-55.2279677507443

> <r_i_glide_energy>
-41.7540636062622

> <r_i_glide_erotb>
0.405183935388994

> <r_i_glide_esite>
-0.189657017719964

> <r_i_glide_evdw>
-26.5718994140625

> <r_i_glide_gscore>
-6.9321945705047

> <r_i_glide_hbond>
-0.283574813296039

> <r_i_glide_ligand_efficiency>
-0.256747947055729

> <r_i_glide_ligand_efficiency_ln>
-1.61370060985405

> <r_i_glide_ligand_efficiency_sa>
-0.770243840320989

> <r_i_glide_lipo>
-1.98685112032678

> <r_i_glide_metal>
0

> <r_i_glide_rewards>
-1.27137595501783

> <i_i_glide_confnum>
10

> <i_i_glide_lignum>
31

> <i_i_glide_posenum>
354

> <i_i_glide_rotatable_bonds>
3

> <r_i_glide_eff_state_penalty>
0

> <s_m_job_name>
glide-dock_SP_bace_other

> <r_user_dG.exp>
-8.763

> <r_m_Molecular_weight>
378.84439

> <r_glide_shape_similarity>
0.937035977840424

> <s_m_subgroup_title>
glide-dock_SP_bace_other_lib1

> <s_m_subgroupid>
glide-dock_SP_bace_other_lib1

> <b_m_subgroup_collapsed>
0

$$$$
