CAT-17h
                    3D
 Schrodinger Suite 2021-2.
 42 45  0  0  1  0            999 V2000
   11.8778   -2.1357    1.3020 C   0  0  0  0  0  0
   13.1135   -2.5050    0.6276 N   0  0  0  0  0  0
   14.3227   -2.5757    1.1711 C   0  0  0  0  0  0
   14.5848   -2.3919    2.4367 N   0  0  0  0  0  0
   15.2830   -2.8680    0.3188 N   0  3  0  0  0  0
   14.7148   -3.1159   -0.9795 C   0  0  1  0  0  0
   15.2364   -2.0628   -1.9738 C   0  0  0  0  0  0
   15.7210   -2.4061   -3.2404 C   0  0  0  0  0  0
   16.1381   -1.4297   -4.1461 C   0  0  0  0  0  0
   16.0592   -0.0786   -3.8135 C   0  0  0  0  0  0
   15.5631    0.3155   -2.5683 C   0  0  0  0  0  0
   15.3223    1.7401   -2.3476 C   0  0  0  0  0  0
   14.5383    2.4517   -3.2693 C   0  0  0  0  0  0
   14.1848    3.7409   -3.1449 N   0  0  0  0  0  0
   14.5618    4.3781   -2.0315 C   0  0  0  0  0  0
   15.2895    3.7513   -1.0197 C   0  0  0  0  0  0
   15.3848    4.5148    0.5100 Cl  0  0  0  0  0  0
   15.7579    2.4431   -1.2248 C   0  0  0  0  0  0
   15.1873   -0.6800   -1.6443 C   0  0  0  0  0  0
   14.8485   -4.6426   -1.1529 C   0  0  0  0  0  0
   14.6024   -5.4732   -2.3802 C   0  0  0  0  0  0
   15.9957   -5.3779   -1.7813 C   0  0  0  0  0  0
   13.2438   -2.8123   -0.7355 C   0  0  0  0  0  0
   12.3241   -2.8105   -1.5467 O   0  0  0  0  0  0
   10.9994   -2.2790    0.6710 H   0  0  0  0  0  0
   11.7461   -2.7184    2.2131 H   0  0  0  0  0  0
   11.9555   -1.0848    1.5604 H   0  0  0  0  0  0
   15.5856   -2.3793    2.7640 H   0  0  0  0  0  0
   16.2562   -3.0517    0.5776 H   0  0  0  0  0  0
   15.7861   -3.4215   -3.5705 H   0  0  0  0  0  0
   16.5147   -1.7346   -5.1117 H   0  0  0  0  0  0
   16.3500    0.6633   -4.5441 H   0  0  0  0  0  0
   14.1741    1.9596   -4.1587 H   0  0  0  0  0  0
   14.2006    5.3904   -1.9063 H   0  0  0  0  0  0
   16.2913    1.9348   -0.4367 H   0  0  0  0  0  0
   14.7873   -0.3627   -0.6942 H   0  0  0  0  0  0
   14.4901   -5.1435   -0.2547 H   0  0  0  0  0  0
   14.0695   -6.4110   -2.2530 H   0  0  0  0  0  0
   14.3796   -4.9555   -3.3099 H   0  0  0  0  0  0
   16.7580   -4.8021   -2.2978 H   0  0  0  0  0  0
   16.3747   -6.2477   -1.2503 H   0  0  0  0  0  0
   13.8214   -2.2736    3.0886 H   0  0  0  0  0  0
  1  2  1  0  0  0
  1 25  1  0  0  0
  1 26  1  0  0  0
  1 27  1  0  0  0
  2  3  1  0  0  0
  2 23  1  0  0  0
  3  4  1  0  0  0
  3  5  2  0  0  0
  4 28  1  0  0  0
  4 42  1  0  0  0
  5  6  1  0  0  0
  5 29  1  0  0  0
  6  7  1  0  0  0
  6 20  1  0  0  0
  6 23  1  0  0  0
  7  8  2  0  0  0
  7 19  1  0  0  0
  8  9  1  0  0  0
  8 30  1  0  0  0
  9 10  2  0  0  0
  9 31  1  0  0  0
 10 11  1  0  0  0
 10 32  1  0  0  0
 11 12  1  0  0  0
 11 19  2  0  0  0
 12 13  2  0  0  0
 12 18  1  0  0  0
 13 14  1  0  0  0
 13 33  1  0  0  0
 14 15  2  0  0  0
 15 16  1  0  0  0
 15 34  1  0  0  0
 16 17  1  0  0  0
 16 18  2  0  0  0
 18 35  1  0  0  0
 19 36  1  0  0  0
 20 21  1  0  0  0
 20 22  1  0  0  0
 20 37  1  0  0  0
 21 22  1  0  0  0
 21 38  1  0  0  0
 21 39  1  0  0  0
 22 40  1  0  0  0
 22 41  1  0  0  0
 23 24  2  0  0  0
M  CHG  1   5   1
M  END
> <s_m_entry_id>
1407

> <s_m_entry_name>
Bace_CAT-17h.1

> <s_m_Source_Path>
C:\Users\yujiethinkpad\Desktop\05A\BACE

> <s_m_Source_File>
Bace_CAT-17h.sdf

> <i_m_Source_File_Index>
1

> <s_i_glide_gridfile>
glide-grid_Bace

> <r_i_docking_score>
-6.47282451270781

> <r_i_glide_ecoul>
-13.4803743362427

> <r_i_glide_einternal>
2.88825511932373

> <r_i_glide_emodel>
-38.6003345575945

> <r_i_glide_energy>
-35.3752851486206

> <r_i_glide_erotb>
0.486695210643048

> <r_i_glide_esite>
-0.191118184531059

> <r_i_glide_evdw>
-21.8949108123779

> <r_i_glide_gscore>
-6.47282451270781

> <r_i_glide_hbond>
-0.284855635960736

> <r_i_glide_ligand_efficiency>
-0.269701021362826

> <r_i_glide_ligand_efficiency_ln>
-1.54924392445388

> <r_i_glide_ligand_efficiency_sa>
-0.777952363519884

> <r_i_glide_lipo>
-2.04550310388001

> <r_i_glide_metal>
0

> <r_i_glide_rewards>
-1.32124110792376

> <i_i_glide_confnum>
6

> <i_i_glide_lignum>
6

> <i_i_glide_posenum>
351

> <i_i_glide_rotatable_bonds>
3

> <r_i_glide_eff_state_penalty>
0

> <s_m_job_name>
glide-dock_SP_bace_other

> <r_user_dG.exp>
-10.333

> <r_m_Molecular_weight>
341.82336

> <r_glide_shape_similarity>
0.855964720249176

> <s_m_subgroup_title>
glide-dock_SP_bace_other_lib1

> <s_m_subgroupid>
glide-dock_SP_bace_other_lib1

> <b_m_subgroup_collapsed>
0

$$$$
