CAT-4c
                    3D
 Schrodinger Suite 2021-2.
 50 53  0  0  1  0            999 V2000
   12.6007    6.0332   -2.3797 C   0  0  0  0  0  0
   13.8174    5.7146   -1.6648 O   0  0  0  0  0  0
   14.3932    4.4844   -1.9255 C   0  0  0  0  0  0
   15.3937    3.9780   -1.0542 C   0  0  0  0  0  0
   15.8746    2.6539   -1.2171 C   0  0  0  0  0  0
   15.3661    1.8365   -2.2578 C   0  0  0  0  0  0
   15.6458    0.4108   -2.4669 C   0  0  0  0  0  0
   16.1376    0.0007   -3.7296 C   0  0  0  0  0  0
   16.1475   -1.3584   -4.0854 C   0  0  0  0  0  0
   15.6722   -2.3236   -3.1770 C   0  0  0  0  0  0
   15.2087   -1.9472   -1.8881 C   0  0  0  0  0  0
   14.6134   -2.9984   -0.9247 C   0  0  1  0  0  0
   14.8560   -4.4792   -1.3224 C   0  0  0  0  0  0
   13.8040   -5.3596   -1.7020 C   0  0  0  0  0  0
   14.0639   -6.7170   -1.9729 C   0  0  0  0  0  0
   15.3761   -7.2191   -1.8846 C   0  0  0  0  0  0
   16.4358   -6.3570   -1.5406 C   0  0  0  0  0  0
   16.1768   -4.9993   -1.2642 C   0  0  0  0  0  0
   15.0754   -2.8453    0.4597 N   0  3  0  0  0  0
   14.0409   -2.6639    1.2879 C   0  0  0  0  0  0
   14.1850   -2.6852    2.6068 N   0  0  0  0  0  0
   12.8738   -2.4930    0.6501 N   0  0  0  0  0  0
   11.5607   -2.1687    1.2378 C   0  0  0  0  0  0
   13.1107   -2.6640   -0.7424 C   0  0  0  0  0  0
   12.2429   -2.5567   -1.6138 O   0  0  0  0  0  0
   15.2154   -0.5678   -1.5386 C   0  0  0  0  0  0
   14.4430    2.3843   -3.1699 C   0  0  0  0  0  0
   13.9633    3.6867   -3.0154 C   0  0  0  0  0  0
   12.1812    6.9797   -2.0412 H   0  0  0  0  0  0
   12.7777    6.1245   -3.4515 H   0  0  0  0  0  0
   11.8378    5.2719   -2.2101 H   0  0  0  0  0  0
   15.7415    4.5795   -0.2275 H   0  0  0  0  0  0
   16.5843    2.2557   -0.5084 H   0  0  0  0  0  0
   16.4498    0.7362   -4.4581 H   0  0  0  0  0  0
   16.4949   -1.6553   -5.0644 H   0  0  0  0  0  0
   15.6593   -3.3545   -3.4975 H   0  0  0  0  0  0
   12.7788   -5.0336   -1.7854 H   0  0  0  0  0  0
   13.2563   -7.3800   -2.2442 H   0  0  0  0  0  0
   15.5669   -8.2656   -2.0689 H   0  0  0  0  0  0
   17.4434   -6.7376   -1.4640 H   0  0  0  0  0  0
   16.9964   -4.3542   -0.9818 H   0  0  0  0  0  0
   16.0355   -3.0456    0.7578 H   0  0  0  0  0  0
   15.1642   -2.6936    2.9431 H   0  0  0  0  0  0
   11.5150   -2.4242    2.2958 H   0  0  0  0  0  0
   11.3673   -1.1031    1.1186 H   0  0  0  0  0  0
   10.7645   -2.7137    0.7294 H   0  0  0  0  0  0
   14.8105   -0.2443   -0.5897 H   0  0  0  0  0  0
   14.0518    1.7815   -3.9769 H   0  0  0  0  0  0
   13.2279    4.0230   -3.7287 H   0  0  0  0  0  0
   13.4171   -2.4394    3.2367 H   0  0  0  0  0  0
  1  2  1  0  0  0
  1 29  1  0  0  0
  1 30  1  0  0  0
  1 31  1  0  0  0
  2  3  1  0  0  0
  3  4  2  0  0  0
  3 28  1  0  0  0
  4  5  1  0  0  0
  4 32  1  0  0  0
  5  6  2  0  0  0
  5 33  1  0  0  0
  6  7  1  0  0  0
  6 27  1  0  0  0
  7  8  2  0  0  0
  7 26  1  0  0  0
  8  9  1  0  0  0
  8 34  1  0  0  0
  9 10  2  0  0  0
  9 35  1  0  0  0
 10 11  1  0  0  0
 10 36  1  0  0  0
 11 12  1  0  0  0
 11 26  2  0  0  0
 12 13  1  0  0  0
 12 19  1  0  0  0
 12 24  1  0  0  0
 13 14  2  0  0  0
 13 18  1  0  0  0
 14 15  1  0  0  0
 14 37  1  0  0  0
 15 16  2  0  0  0
 15 38  1  0  0  0
 16 17  1  0  0  0
 16 39  1  0  0  0
 17 18  2  0  0  0
 17 40  1  0  0  0
 18 41  1  0  0  0
 19 20  2  0  0  0
 19 42  1  0  0  0
 20 21  1  0  0  0
 20 22  1  0  0  0
 21 43  1  0  0  0
 21 50  1  0  0  0
 22 23  1  0  0  0
 22 24  1  0  0  0
 23 44  1  0  0  0
 23 45  1  0  0  0
 23 46  1  0  0  0
 24 25  2  0  0  0
 26 47  1  0  0  0
 27 28  2  0  0  0
 27 48  1  0  0  0
 28 49  1  0  0  0
M  CHG  1  19   1
M  END
> <s_m_entry_id>
1416

> <s_m_entry_name>
Bace_CAT-4c.1

> <s_m_Source_Path>
C:\Users\yujiethinkpad\Desktop\05A\BACE

> <s_m_Source_File>
Bace_CAT-4c.sdf

> <i_m_Source_File_Index>
1

> <s_i_glide_gridfile>
glide-grid_Bace

> <r_i_docking_score>
-6.30111725467211

> <r_i_glide_ecoul>
-8.8924503326416

> <r_i_glide_einternal>
2.37539339065552

> <r_i_glide_emodel>
-41.8692289164281

> <r_i_glide_energy>
-36.3456649780273

> <r_i_glide_erotb>
0.417719767472812

> <r_i_glide_esite>
-0.125628855859095

> <r_i_glide_evdw>
-27.4532146453857

> <r_i_glide_gscore>
-6.30111725467211

> <r_i_glide_hbond>
-0.4

> <r_i_glide_ligand_efficiency>
-0.225039901952575

> <r_i_glide_ligand_efficiency_ln>
-1.45448287122006

> <r_i_glide_ligand_efficiency_sa>
-0.683353683742145

> <r_i_glide_lipo>
-2.31775349403618

> <r_i_glide_metal>
0

> <r_i_glide_rewards>
-1.16892639008411

> <i_i_glide_confnum>
20

> <i_i_glide_lignum>
11

> <i_i_glide_posenum>
254

> <i_i_glide_rotatable_bonds>
4

> <r_i_glide_eff_state_penalty>
0

> <s_m_job_name>
glide-dock_SP_bace_other

> <r_user_dG.exp>
-7.853

> <r_m_Molecular_weight>
372.45069

> <r_glide_shape_similarity>
0.904839396476746

> <s_m_subgroup_title>
glide-dock_SP_bace_other_lib1

> <s_m_subgroupid>
glide-dock_SP_bace_other_lib1

> <b_m_subgroup_collapsed>
0

$$$$
