CAT-17e
                    3D
 Schrodinger Suite 2021-2.
 46 49  0  0  1  0            999 V2000
   15.0190    5.1747    0.7669 C   0  0  0  0  0  0
   15.8690    4.1885    0.2118 O   0  0  0  0  0  0
   15.4729    3.6565   -0.9775 C   0  0  0  0  0  0
   14.6669    4.3235   -1.9157 C   0  0  0  0  0  0
   14.1848    3.7271   -3.0129 N   0  0  0  0  0  0
   14.4962    2.4343   -3.2065 C   0  0  0  0  0  0
   15.3070    1.6783   -2.3455 C   0  0  0  0  0  0
   15.5420    0.2644   -2.5996 C   0  0  0  0  0  0
   16.0345   -0.1095   -3.8501 C   0  0  0  0  0  0
   16.1318   -1.4575   -4.1886 C   0  0  0  0  0  0
   15.7343   -2.4510   -3.2862 C   0  0  0  0  0  0
   15.2666   -2.1192   -2.0055 C   0  0  0  0  0  0
   14.7598   -3.1667   -0.9969 C   0  0  1  0  0  0
   14.9131   -4.6920   -1.1425 C   0  0  0  0  0  0
   14.6535   -5.5316   -2.3595 C   0  0  0  0  0  0
   16.0552   -5.4216   -1.7908 C   0  0  0  0  0  0
   15.3143   -2.8721    0.3018 N   0  3  0  0  0  0
   14.3448   -2.5098    1.1172 C   0  0  0  0  0  0
   14.5849   -2.2045    2.3646 N   0  0  0  0  0  0
   13.1371   -2.4912    0.5629 N   0  0  0  0  0  0
   11.8919   -2.1054    1.2168 C   0  0  0  0  0  0
   13.2814   -2.8803   -0.7784 C   0  0  0  0  0  0
   12.3672   -2.9505   -1.5936 O   0  0  0  0  0  0
   15.2013   -0.7386   -1.6718 C   0  0  0  0  0  0
   15.8310    2.3316   -1.2361 C   0  0  0  0  0  0
   15.3767    5.4049    1.7704 H   0  0  0  0  0  0
   15.0265    6.0998    0.1885 H   0  0  0  0  0  0
   13.9926    4.8159    0.8528 H   0  0  0  0  0  0
   14.3661    5.3522   -1.7854 H   0  0  0  0  0  0
   14.0617    1.9793   -4.0846 H   0  0  0  0  0  0
   16.3116    0.6384   -4.5801 H   0  0  0  0  0  0
   16.4932   -1.7289   -5.1695 H   0  0  0  0  0  0
   15.7995   -3.4663   -3.6295 H   0  0  0  0  0  0
   14.5740   -5.1879   -0.2320 H   0  0  0  0  0  0
   14.1287   -6.4733   -2.2109 H   0  0  0  0  0  0
   14.4188   -5.0296   -3.2939 H   0  0  0  0  0  0
   16.8011   -4.8439   -2.3298 H   0  0  0  0  0  0
   16.4503   -6.2868   -1.2622 H   0  0  0  0  0  0
   16.2861   -3.0310    0.5815 H   0  0  0  0  0  0
   15.5658   -2.2854    2.7462 H   0  0  0  0  0  0
   11.0362   -2.1451    0.5421 H   0  0  0  0  0  0
   11.6904   -2.7484    2.0731 H   0  0  0  0  0  0
   12.0080   -1.0854    1.5628 H   0  0  0  0  0  0
   14.8185   -0.4293   -0.7094 H   0  0  0  0  0  0
   16.4447    1.7955   -0.5268 H   0  0  0  0  0  0
   13.7984   -2.0592    2.9848 H   0  0  0  0  0  0
  1  2  1  0  0  0
  1 26  1  0  0  0
  1 27  1  0  0  0
  1 28  1  0  0  0
  2  3  1  0  0  0
  3  4  2  0  0  0
  3 25  1  0  0  0
  4  5  1  0  0  0
  4 29  1  0  0  0
  5  6  2  0  0  0
  6  7  1  0  0  0
  6 30  1  0  0  0
  7  8  1  0  0  0
  7 25  2  0  0  0
  8  9  2  0  0  0
  8 24  1  0  0  0
  9 10  1  0  0  0
  9 31  1  0  0  0
 10 11  2  0  0  0
 10 32  1  0  0  0
 11 12  1  0  0  0
 11 33  1  0  0  0
 12 13  1  0  0  0
 12 24  2  0  0  0
 13 14  1  0  0  0
 13 17  1  0  0  0
 13 22  1  0  0  0
 14 15  1  0  0  0
 14 16  1  0  0  0
 14 34  1  0  0  0
 15 16  1  0  0  0
 15 35  1  0  0  0
 15 36  1  0  0  0
 16 37  1  0  0  0
 16 38  1  0  0  0
 17 18  2  0  0  0
 17 39  1  0  0  0
 18 19  1  0  0  0
 18 20  1  0  0  0
 19 40  1  0  0  0
 19 46  1  0  0  0
 20 21  1  0  0  0
 20 22  1  0  0  0
 21 41  1  0  0  0
 21 42  1  0  0  0
 21 43  1  0  0  0
 22 23  2  0  0  0
 24 44  1  0  0  0
 25 45  1  0  0  0
M  CHG  1  17   1
M  END
> <s_m_entry_id>
1399

> <s_m_entry_name>
Bace_CAT-17e.1

> <s_m_Source_Path>
C:\Users\yujiethinkpad\Desktop\05A\BACE

> <s_m_Source_File>
Bace_CAT-17e.sdf

> <i_m_Source_File_Index>
1

> <s_i_glide_gridfile>
glide-grid_Bace

> <r_i_docking_score>
-6.58955609339281

> <r_i_glide_ecoul>
-13.1039981842041

> <r_i_glide_einternal>
4.80347967147827

> <r_i_glide_emodel>
-39.3485930733214

> <r_i_glide_energy>
-37.0289497375488

> <r_i_glide_erotb>
0.498050549205305

> <r_i_glide_esite>
-0.18909421536154

> <r_i_glide_evdw>
-23.9249515533447

> <r_i_glide_gscore>
-6.58955609339281

> <r_i_glide_hbond>
-0.296670872476703

> <r_i_glide_ligand_efficiency>
-0.263582243735712

> <r_i_glide_ligand_efficiency_ln>
-1.56192226719512

> <r_i_glide_ligand_efficiency_sa>
-0.77071915533422

> <r_i_glide_lipo>
-2.18890626457524

> <r_i_glide_metal>
0

> <r_i_glide_rewards>
-1.25108798488678

> <i_i_glide_confnum>
16

> <i_i_glide_lignum>
3

> <i_i_glide_posenum>
381

> <i_i_glide_rotatable_bonds>
4

> <r_i_glide_eff_state_penalty>
0

> <s_m_job_name>
glide-dock_SP_bace_other

> <r_user_dG.exp>
-10.023

> <r_m_Molecular_weight>
337.40482

> <r_glide_shape_similarity>
0.857782483100891

> <s_m_subgroup_title>
glide-dock_SP_bace_other_lib1

> <s_m_subgroupid>
glide-dock_SP_bace_other_lib1

> <b_m_subgroup_collapsed>
0

$$$$
