18627-1
                    3D
 Schrodinger Suite 2021-2.
 38 39  0  0  1  0            999 V2000
   24.6508   10.7108   30.8674 C   0  0  0  0  0  0
   23.3345   11.1769   30.2653 C   0  0  0  0  0  0
   22.3449   11.3172   31.2690 O   0  0  0  0  0  0
   21.5766   10.2362   31.6482 C   0  0  0  0  0  0
   21.9062    9.0133   31.1800 N   0  0  0  0  0  0
   21.1311    7.9445   31.4476 C   0  0  0  0  0  0
   19.9573    8.0933   32.2123 C   0  0  0  0  0  0
   19.6112    9.3542   32.7104 C   0  0  0  0  0  0
   18.4226    9.4777   33.4166 N   0  0  0  0  0  0
   20.4364   10.4534   32.4344 C   0  0  0  0  0  0
   20.0918   11.7876   32.8696 C   0  0  0  0  0  0
   19.8121   12.8469   33.2152 N   0  0  0  0  0  0
   21.5845    6.6818   30.9731 N   0  0  0  0  0  0
   21.0229    5.4603   30.9980 C   0  0  0  0  0  0
   19.8553    5.2629   31.2943 O   0  0  0  0  0  0
   21.8298    4.2570   30.4858 C   0  0  0  0  0  0
   23.3192    4.3047   30.7964 C   0  0  0  0  0  0
   24.1238    5.2830   30.1838 C   0  0  0  0  0  0
   25.4994    5.3504   30.4391 C   0  0  0  0  0  0
   26.0940    4.3912   31.2679 C   0  0  0  0  0  0
   27.7913    4.4223   31.5425 Cl  0  0  0  0  0  0
   25.3091    3.3872   31.8612 C   0  0  0  0  0  0
   23.9225    3.3442   31.6324 C   0  0  0  0  0  0
   25.4268   10.6744   30.1030 H   0  0  0  0  0  0
   24.5650    9.7087   31.2888 H   0  0  0  0  0  0
   24.9768   11.3896   31.6561 H   0  0  0  0  0  0
   23.4879   12.1579   29.8196 H   0  0  0  0  0  0
   23.0069   10.5360   29.4452 H   0  0  0  0  0  0
   19.3174    7.2582   32.4427 H   0  0  0  0  0  0
   18.0582   10.3877   33.6618 H   0  0  0  0  0  0
   17.7899    8.6967   33.5202 H   0  0  0  0  0  0
   22.5098    6.7056   30.5822 H   0  0  0  0  0  0
   21.4060    3.3408   30.8961 H   0  0  0  0  0  0
   21.6889    4.1939   29.4057 H   0  0  0  0  0  0
   23.6964    5.9967   29.4936 H   0  0  0  0  0  0
   26.1044    6.1155   29.9728 H   0  0  0  0  0  0
   25.7718    2.6389   32.4874 H   0  0  0  0  0  0
   23.3227    2.5673   32.0851 H   0  0  0  0  0  0
  1  2  1  0  0  0
  1 24  1  0  0  0
  1 25  1  0  0  0
  1 26  1  0  0  0
  2  3  1  0  0  0
  2 27  1  0  0  0
  2 28  1  0  0  0
  3  4  1  0  0  0
  4 10  1  0  0  0
  4  5  2  0  0  0
  5  6  1  0  0  0
  6  7  2  0  0  0
  6 13  1  0  0  0
  7  8  1  0  0  0
  7 29  1  0  0  0
  8  9  1  0  0  0
  8 10  2  0  0  0
  9 30  1  0  0  0
  9 31  1  0  0  0
 10 11  1  0  0  0
 11 12  3  0  0  0
 13 14  1  0  0  0
 13 32  1  0  0  0
 14 15  2  0  0  0
 14 16  1  0  0  0
 16 17  1  0  0  0
 16 33  1  0  0  0
 16 34  1  0  0  0
 17 23  1  0  0  0
 17 18  2  0  0  0
 18 19  1  0  0  0
 18 35  1  0  0  0
 19 20  2  0  0  0
 19 36  1  0  0  0
 20 21  1  0  0  0
 20 22  1  0  0  0
 22 23  2  0  0  0
 22 37  1  0  0  0
 23 38  1  0  0  0
M  END
> <i_m_stars>
0

> <s_m_entry_id>
2967

> <s_m_entry_name>
Jnk1_18627-1.1

> <s_m_Source_Path>
C:\Users\yujiethinkpad\Desktop\05A\JNK1

> <s_m_Source_File>
Jnk1_18627-1.sdf

> <i_m_Source_File_Index>
1

> <s_i_glide_gridfile>
glide-grid_JNK1

> <r_i_docking_score>
-7.92685060477374

> <r_i_glide_ecoul>
-6.63300132751465

> <r_i_glide_einternal>
7.68459320068359

> <r_i_glide_emodel>
-48.0843638835402

> <r_i_glide_energy>
-42.2810878753662

> <r_i_glide_erotb>
0.687793016403273

> <r_i_glide_esite>
0

> <r_i_glide_evdw>
-35.6480865478516

> <r_i_glide_gscore>
-7.92685060477374

> <r_i_glide_hbond>
-0.349057294527912

> <r_i_glide_ligand_efficiency>
-0.344645678468423

> <r_i_glide_ligand_efficiency_ln>
-1.91678435294166

> <r_i_glide_ligand_efficiency_sa>
-0.980126463720496

> <r_i_glide_lipo>
-3.43806569994296

> <r_i_glide_metal>
0

> <r_i_glide_rewards>
-2.05016610018636

> <i_i_glide_confnum>
10

> <i_i_glide_lignum>
17

> <i_i_glide_posenum>
320

> <i_i_glide_rotatable_bonds>
6

> <r_i_glide_eff_state_penalty>
0

> <s_m_job_name>
glide-dock_SP_other_4988

> <r_user_dG.exp>
-8.483096

> <r_m_Molecular_weight>
330.77655

> <r_glide_shape_similarity>
0.872617065906525

> <s_m_subgroup_title>
glide-dock_SP_other_4988_lib1

> <s_m_subgroupid>
glide-dock_SP_other_4988_lib1

> <b_m_subgroup_collapsed>
0

$$$$
