18626-1
                    3D
 Schrodinger Suite 2021-2.
 38 39  0  0  1  0            999 V2000
   24.6444   10.6589   30.8688 C   0  0  0  0  0  0
   23.3414   11.1654   30.2669 C   0  0  0  0  0  0
   22.3542   11.3116   31.2689 O   0  0  0  0  0  0
   21.5774   10.2363   31.6433 C   0  0  0  0  0  0
   21.9111    9.0094   31.1823 N   0  0  0  0  0  0
   21.1316    7.9433   31.4525 C   0  0  0  0  0  0
   19.9567    8.0926   32.2194 C   0  0  0  0  0  0
   19.6103    9.3570   32.7112 C   0  0  0  0  0  0
   18.4236    9.4822   33.4203 N   0  0  0  0  0  0
   20.4382   10.4580   32.4322 C   0  0  0  0  0  0
   20.0939   11.7916   32.8725 C   0  0  0  0  0  0
   19.8142   12.8508   33.2216 N   0  0  0  0  0  0
   21.5915    6.6791   30.9916 N   0  0  0  0  0  0
   21.0190    5.4630   31.0025 C   0  0  0  0  0  0
   19.8445    5.2755   31.2796 O   0  0  0  0  0  0
   21.8211    4.2465   30.5098 C   0  0  0  0  0  0
   23.3102    4.2801   30.8140 C   0  0  0  0  0  0
   24.0993    5.2577   30.1939 C   0  0  0  0  0  0
   25.4707    5.3179   30.4373 C   0  0  0  0  0  0
   26.3853    6.5214   29.6508 Cl  0  0  0  0  0  0
   26.0902    4.3791   31.2717 C   0  0  0  0  0  0
   25.3159    3.3737   31.8726 C   0  0  0  0  0  0
   23.9261    3.3247   31.6515 C   0  0  0  0  0  0
   25.4169   10.6083   30.1063 H   0  0  0  0  0  0
   24.5203    9.6613   31.2850 H   0  0  0  0  0  0
   24.9901   11.3162   31.6691 H   0  0  0  0  0  0
   23.5127   12.1506   29.8420 H   0  0  0  0  0  0
   22.9978   10.5392   29.4390 H   0  0  0  0  0  0
   19.3206    7.2553   32.4678 H   0  0  0  0  0  0
   18.0521   10.3909   33.6598 H   0  0  0  0  0  0
   17.7815    8.7047   33.5124 H   0  0  0  0  0  0
   22.5253    6.6971   30.6194 H   0  0  0  0  0  0
   21.3843    3.3418   30.9370 H   0  0  0  0  0  0
   21.6849    4.1639   29.4331 H   0  0  0  0  0  0
   23.6659    5.9651   29.5000 H   0  0  0  0  0  0
   27.1568    4.4199   31.4481 H   0  0  0  0  0  0
   25.7845    2.6395   32.5150 H   0  0  0  0  0  0
   23.3383    2.5420   32.1131 H   0  0  0  0  0  0
  1  2  1  0  0  0
  1 24  1  0  0  0
  1 25  1  0  0  0
  1 26  1  0  0  0
  2  3  1  0  0  0
  2 27  1  0  0  0
  2 28  1  0  0  0
  3  4  1  0  0  0
  4 10  1  0  0  0
  4  5  2  0  0  0
  5  6  1  0  0  0
  6  7  2  0  0  0
  6 13  1  0  0  0
  7  8  1  0  0  0
  7 29  1  0  0  0
  8  9  1  0  0  0
  8 10  2  0  0  0
  9 30  1  0  0  0
  9 31  1  0  0  0
 10 11  1  0  0  0
 11 12  3  0  0  0
 13 14  1  0  0  0
 13 32  1  0  0  0
 14 15  2  0  0  0
 14 16  1  0  0  0
 16 17  1  0  0  0
 16 33  1  0  0  0
 16 34  1  0  0  0
 17 23  1  0  0  0
 17 18  2  0  0  0
 18 19  1  0  0  0
 18 35  1  0  0  0
 19 20  1  0  0  0
 19 21  2  0  0  0
 21 22  1  0  0  0
 21 36  1  0  0  0
 22 23  2  0  0  0
 22 37  1  0  0  0
 23 38  1  0  0  0
M  END
> <i_m_stars>
0

> <s_m_entry_id>
2974

> <s_m_entry_name>
Jnk1_18626-1.1

> <s_m_Source_Path>
C:\Users\yujiethinkpad\Desktop\05A\JNK1

> <s_m_Source_File>
Jnk1_18626-1.sdf

> <i_m_Source_File_Index>
1

> <s_i_glide_gridfile>
glide-grid_JNK1

> <r_i_docking_score>
-7.7025727527588

> <r_i_glide_ecoul>
-6.0890007019043

> <r_i_glide_einternal>
7.81605958938599

> <r_i_glide_emodel>
-47.0323086715624

> <r_i_glide_energy>
-41.4489822387695

> <r_i_glide_erotb>
0.687793016403273

> <r_i_glide_esite>
0

> <r_i_glide_evdw>
-35.3599815368652

> <r_i_glide_gscore>
-7.7025727527588

> <r_i_glide_hbond>
-0.343211292783932

> <r_i_glide_ligand_efficiency>
-0.334894467511252

> <r_i_glide_ligand_efficiency_ln>
-1.86255193468532

> <r_i_glide_ligand_efficiency_sa>
-0.952395316894813

> <r_i_glide_lipo>
-3.31515732308027

> <r_i_glide_metal>
0

> <r_i_glide_rewards>
-2.05064797116896

> <i_i_glide_confnum>
10

> <i_i_glide_lignum>
16

> <i_i_glide_posenum>
247

> <i_i_glide_rotatable_bonds>
6

> <r_i_glide_eff_state_penalty>
0

> <s_m_job_name>
glide-dock_SP_other_4988

> <r_user_dG.exp>
-8.872536

> <r_m_Molecular_weight>
330.77655

> <r_glide_shape_similarity>
0.87419068813324

> <s_m_subgroup_title>
glide-dock_SP_other_4988_lib1

> <s_m_subgroupid>
glide-dock_SP_other_4988_lib1

> <b_m_subgroup_collapsed>
0

$$$$
