18638-1
                    3D
 Schrodinger Suite 2021-2.
 52 53  0  0  1  0            999 V2000
   24.2817   12.3601   30.1916 C   0  0  0  0  0  0
   23.5314   11.0441   30.4436 C   0  0  0  0  0  0
   22.3949   11.3095   31.2699 O   0  0  0  0  0  0
   21.5872   10.2536   31.6561 C   0  0  0  0  0  0
   21.9042    9.0222   31.1864 N   0  0  0  0  0  0
   21.1060    7.9636   31.4445 C   0  0  0  0  0  0
   19.9226    8.1095   32.2061 C   0  0  0  0  0  0
   19.5975    9.3779   32.7258 C   0  0  0  0  0  0
   18.4132    9.5015   33.4533 N   0  0  0  0  0  0
   20.4350   10.4864   32.4465 C   0  0  0  0  0  0
   20.0897   11.8304   32.8874 C   0  0  0  0  0  0
   19.8115   12.8940   33.2371 N   0  0  0  0  0  0
   21.5333    6.7270   30.9031 N   0  0  0  0  0  0
   21.0415    5.4879   31.0320 C   0  0  0  0  0  0
   20.0230    5.1990   31.6678 O   0  0  0  0  0  0
   21.8182    4.4354   30.2359 C   0  0  0  0  0  0
   23.2556    4.2723   30.7424 C   0  0  0  0  0  0
   24.3272    5.1417   30.3578 C   0  0  0  0  0  0
   24.0671    6.2529   29.5654 O   0  0  0  0  0  0
   25.1015    7.2371   29.4147 C   0  0  0  0  0  0
   25.6385    4.8342   30.7999 C   0  0  0  0  0  0
   25.8759    3.7334   31.6448 C   0  0  0  0  0  0
   27.6053    3.3958   32.0682 S   0  0  0  0  0  0
   28.3995    4.6083   31.7822 O   0  0  0  0  0  0
   27.6540    2.7893   33.4166 O   0  0  0  0  0  0
   28.1004    2.1096   30.8393 C   0  0  0  0  0  0
   24.8132    2.8754   32.0491 C   0  0  0  0  0  0
   23.5104    3.1713   31.5837 C   0  0  0  0  0  0
   25.0797    1.7727   32.8409 O   0  0  0  0  0  0
   24.0392    0.8122   33.0434 C   0  0  0  0  0  0
   25.1642   12.1947   29.5779 H   0  0  0  0  0  0
   24.6105   12.8131   31.1311 H   0  0  0  0  0  0
   23.6423   13.0771   29.6780 H   0  0  0  0  0  0
   23.2107   10.6165   29.4919 H   0  0  0  0  0  0
   24.1969   10.3354   30.9334 H   0  0  0  0  0  0
   19.2668    7.2825   32.4174 H   0  0  0  0  0  0
   18.0309   10.4110   33.6822 H   0  0  0  0  0  0
   17.7614    8.7296   33.5274 H   0  0  0  0  0  0
   22.3731    6.7868   30.3431 H   0  0  0  0  0  0
   21.2902    3.4821   30.2666 H   0  0  0  0  0  0
   21.8354    4.7488   29.1951 H   0  0  0  0  0  0
   24.6870    8.1076   28.9050 H   0  0  0  0  0  0
   25.4817    7.5742   30.3789 H   0  0  0  0  0  0
   25.9245    6.8582   28.8054 H   0  0  0  0  0  0
   26.4832    5.4372   30.4978 H   0  0  0  0  0  0
   29.1368    1.8241   31.0113 H   0  0  0  0  0  0
   27.4591    1.2360   30.9573 H   0  0  0  0  0  0
   27.9927    2.5070   29.8311 H   0  0  0  0  0  0
   22.6719    2.5362   31.8265 H   0  0  0  0  0  0
   24.4493   -0.0472   33.5735 H   0  0  0  0  0  0
   23.2205    1.2014   33.6488 H   0  0  0  0  0  0
   23.6422    0.4440   32.0935 H   0  0  0  0  0  0
  1  2  1  0  0  0
  1 31  1  0  0  0
  1 32  1  0  0  0
  1 33  1  0  0  0
  2  3  1  0  0  0
  2 34  1  0  0  0
  2 35  1  0  0  0
  3  4  1  0  0  0
  4 10  1  0  0  0
  4  5  2  0  0  0
  5  6  1  0  0  0
  6  7  2  0  0  0
  6 13  1  0  0  0
  7  8  1  0  0  0
  7 36  1  0  0  0
  8  9  1  0  0  0
  8 10  2  0  0  0
  9 37  1  0  0  0
  9 38  1  0  0  0
 10 11  1  0  0  0
 11 12  3  0  0  0
 13 14  1  0  0  0
 13 39  1  0  0  0
 14 15  2  0  0  0
 14 16  1  0  0  0
 16 17  1  0  0  0
 16 40  1  0  0  0
 16 41  1  0  0  0
 17 28  1  0  0  0
 17 18  2  0  0  0
 18 19  1  0  0  0
 18 21  1  0  0  0
 19 20  1  0  0  0
 20 42  1  0  0  0
 20 43  1  0  0  0
 20 44  1  0  0  0
 21 22  2  0  0  0
 21 45  1  0  0  0
 22 23  1  0  0  0
 22 27  1  0  0  0
 23 24  2  0  0  0
 23 25  2  0  0  0
 23 26  1  0  0  0
 26 46  1  0  0  0
 26 47  1  0  0  0
 26 48  1  0  0  0
 27 28  2  0  0  0
 27 29  1  0  0  0
 28 49  1  0  0  0
 29 30  1  0  0  0
 30 50  1  0  0  0
 30 51  1  0  0  0
 30 52  1  0  0  0
M  END
> <i_m_stars>
0

> <s_m_entry_id>
2970

> <s_m_entry_name>
Jnk1_18638-1.1

> <s_m_Source_Path>
C:\Users\yujiethinkpad\Desktop\05A\JNK1

> <s_m_Source_File>
Jnk1_18638-1.sdf

> <i_m_Source_File_Index>
1

> <s_i_glide_gridfile>
glide-grid_JNK1

> <r_i_docking_score>
-7.79396254897966

> <r_i_glide_ecoul>
-7.37083148956299

> <r_i_glide_einternal>
9.08071708679199

> <r_i_glide_emodel>
-53.2014090695658

> <r_i_glide_energy>
-47.4860811233521

> <r_i_glide_erotb>
0.52754325173273

> <r_i_glide_esite>
0

> <r_i_glide_evdw>
-40.1152496337891

> <r_i_glide_gscore>
-7.79396254897966

> <r_i_glide_hbond>
-0.337076323587053

> <r_i_glide_ligand_efficiency>
-0.259798751632655

> <r_i_glide_ligand_efficiency_ln>
-1.77087321315187

> <r_i_glide_ligand_efficiency_sa>
-0.807255125164008

> <r_i_glide_lipo>
-3.4740588973656

> <r_i_glide_metal>
0

> <r_i_glide_rewards>
-1.39898337463583

> <i_i_glide_confnum>
9

> <i_i_glide_lignum>
8

> <i_i_glide_posenum>
253

> <i_i_glide_rotatable_bonds>
9

> <r_i_glide_eff_state_penalty>
0

> <s_m_job_name>
glide-dock_SP_other_4988

> <r_user_dG.exp>
-10.093111

> <r_m_Molecular_weight>
434.47439

> <r_glide_shape_similarity>
0.878102242946625

> <s_m_subgroup_title>
glide-dock_SP_other_4988_lib1

> <s_m_subgroupid>
glide-dock_SP_other_4988_lib1

> <b_m_subgroup_collapsed>
0

$$$$
