18639-1
                    3D
 Schrodinger Suite 2021-2.
 48 49  0  0  1  0            999 V2000
   24.2833   12.3595   30.1909 C   0  0  0  0  0  0
   23.5326   11.0454   30.4427 C   0  0  0  0  0  0
   22.3950   11.3114   31.2681 O   0  0  0  0  0  0
   21.5892   10.2489   31.6511 C   0  0  0  0  0  0
   21.9063    9.0108   31.1821 N   0  0  0  0  0  0
   21.1063    7.9474   31.4360 C   0  0  0  0  0  0
   19.9245    8.1050   32.2064 C   0  0  0  0  0  0
   19.5998    9.3754   32.7234 C   0  0  0  0  0  0
   18.4141    9.5031   33.4485 N   0  0  0  0  0  0
   20.4370   10.4829   32.4415 C   0  0  0  0  0  0
   20.0928   11.8302   32.8824 C   0  0  0  0  0  0
   19.8130   12.8930   33.2312 N   0  0  0  0  0  0
   21.5235    6.6912   30.8961 N   0  0  0  0  0  0
   21.0445    5.4375   31.0851 C   0  0  0  0  0  0
   19.9947    5.1995   31.6672 O   0  0  0  0  0  0
   21.8159    4.2388   30.4797 C   0  0  0  0  0  0
   23.3154    4.2479   30.8099 C   0  0  0  0  0  0
   23.9496    3.2825   31.6525 C   0  0  0  0  0  0
   23.2111    2.2538   32.1985 O   0  0  0  0  0  0
   23.8257    1.3642   33.1316 C   0  0  0  0  0  0
   25.3500    3.3755   31.8646 C   0  0  0  0  0  0
   26.1331    4.3967   31.2710 C   0  0  0  0  0  0
   27.6040    4.4163   31.5375 N   0  3  0  0  0  0
   28.0366    3.7167   32.4571 O   0  5  0  0  0  0
   28.3401    5.1082   30.8347 O   0  0  0  0  0  0
   25.4879    5.3715   30.4533 C   0  0  0  0  0  0
   24.1010    5.2500   30.2008 C   0  0  0  0  0  0
   26.2221    6.4123   29.9190 O   0  0  0  0  0  0
   25.5295    7.6032   29.5453 C   0  0  0  0  0  0
   25.1595   12.1932   29.5647 H   0  0  0  0  0  0
   24.6216   12.8027   31.1273 H   0  0  0  0  0  0
   23.6437   13.0857   29.6875 H   0  0  0  0  0  0
   23.2189   10.6121   29.4915 H   0  0  0  0  0  0
   24.2005   10.3360   30.9351 H   0  0  0  0  0  0
   19.2596    7.2845   32.4188 H   0  0  0  0  0  0
   18.0285   10.4182   33.6703 H   0  0  0  0  0  0
   17.7662    8.7255   33.5297 H   0  0  0  0  0  0
   22.3683    6.7555   30.3473 H   0  0  0  0  0  0
   21.3666    3.3065   30.8249 H   0  0  0  0  0  0
   21.6854    4.2537   29.3977 H   0  0  0  0  0  0
   23.0654    0.6990   33.5386 H   0  0  0  0  0  0
   24.5795    0.7424   32.6485 H   0  0  0  0  0  0
   24.2752    1.8992   33.9679 H   0  0  0  0  0  0
   25.8583    2.6458   32.4751 H   0  0  0  0  0  0
   23.6194    5.9334   29.5204 H   0  0  0  0  0  0
   26.2524    8.3967   29.3587 H   0  0  0  0  0  0
   24.9691    7.4591   28.6199 H   0  0  0  0  0  0
   24.8545    7.9485   30.3312 H   0  0  0  0  0  0
  1  2  1  0  0  0
  1 30  1  0  0  0
  1 31  1  0  0  0
  1 32  1  0  0  0
  2  3  1  0  0  0
  2 33  1  0  0  0
  2 34  1  0  0  0
  3  4  1  0  0  0
  4 10  1  0  0  0
  4  5  2  0  0  0
  5  6  1  0  0  0
  6  7  2  0  0  0
  6 13  1  0  0  0
  7  8  1  0  0  0
  7 35  1  0  0  0
  8  9  1  0  0  0
  8 10  2  0  0  0
  9 36  1  0  0  0
  9 37  1  0  0  0
 10 11  1  0  0  0
 11 12  3  0  0  0
 13 14  1  0  0  0
 13 38  1  0  0  0
 14 15  2  0  0  0
 14 16  1  0  0  0
 16 17  1  0  0  0
 16 39  1  0  0  0
 16 40  1  0  0  0
 17 27  1  0  0  0
 17 18  2  0  0  0
 18 19  1  0  0  0
 18 21  1  0  0  0
 19 20  1  0  0  0
 20 41  1  0  0  0
 20 42  1  0  0  0
 20 43  1  0  0  0
 21 22  2  0  0  0
 21 44  1  0  0  0
 22 23  1  0  0  0
 22 26  1  0  0  0
 23 24  1  0  0  0
 23 25  2  0  0  0
 26 27  2  0  0  0
 26 28  1  0  0  0
 27 45  1  0  0  0
 28 29  1  0  0  0
 29 46  1  0  0  0
 29 47  1  0  0  0
 29 48  1  0  0  0
M  CHG  2  23   1  24  -1
M  END
> <i_m_stars>
0

> <s_m_entry_id>
2976

> <s_m_entry_name>
Jnk1_18639-1.1

> <s_m_Source_Path>
C:\Users\yujiethinkpad\Desktop\05A\JNK1

> <s_m_Source_File>
Jnk1_18639-1.sdf

> <i_m_Source_File_Index>
1

> <s_i_glide_gridfile>
glide-grid_JNK1

> <r_i_docking_score>
-7.65086828710713

> <r_i_glide_ecoul>
-5.48565244674683

> <r_i_glide_einternal>
7.30436611175537

> <r_i_glide_emodel>
-58.2713450670086

> <r_i_glide_energy>
-44.2788577079773

> <r_i_glide_erotb>
0.608732221122544

> <r_i_glide_esite>
0

> <r_i_glide_evdw>
-38.7932052612305

> <r_i_glide_gscore>
-7.65086828710713

> <r_i_glide_hbond>
-0.341045517254635

> <r_i_glide_ligand_efficiency>
-0.263823044383005

> <r_i_glide_ligand_efficiency_ln>
-1.75185482846735

> <r_i_glide_ligand_efficiency_sa>
-0.810547977351784

> <r_i_glide_lipo>
-3.39523530950483

> <r_i_glide_metal>
0

> <r_i_glide_rewards>
-1.76081155139667

> <i_i_glide_confnum>
18

> <i_i_glide_lignum>
9

> <i_i_glide_posenum>
173

> <i_i_glide_rotatable_bonds>
9

> <r_i_glide_eff_state_penalty>
0

> <s_m_job_name>
glide-dock_SP_other_4988

> <r_user_dG.exp>
-9.740725

> <r_m_Molecular_weight>
401.38203

> <r_glide_shape_similarity>
0.963586091995239

> <s_m_subgroup_title>
glide-dock_SP_other_4988_lib1

> <s_m_subgroupid>
glide-dock_SP_other_4988_lib1

> <b_m_subgroup_collapsed>
0

$$$$
