18631-1
                    3D
 Schrodinger Suite 2021-2.
 42 43  0  0  1  0            999 V2000
   18.1173    7.4155   31.8762 C   0  0  0  0  0  0
   18.4051    8.1872   33.1987 C   0  0  0  0  0  0
   19.0924    9.4212   33.0859 O   0  0  0  0  0  0
   20.3183    9.3697   32.4859 C   0  0  0  0  0  0
   20.7956    8.1545   32.2053 N   0  0  0  0  0  0
   21.7140    7.9868   31.2729 C   0  0  0  0  0  0
   22.4393    9.0970   30.8062 C   0  0  0  0  0  0
   22.1024   10.3858   31.2690 C   0  0  0  0  0  0
   22.8761   11.4632   30.8440 N   0  0  0  0  0  0
   20.9674   10.5357   32.0949 C   0  0  0  0  0  0
   20.4183   11.8059   32.5350 C   0  0  0  0  0  0
   19.9769   12.8112   32.8921 N   0  0  0  0  0  0
   21.9946    6.7062   30.7587 N   0  0  0  0  0  0
   21.4112    5.5140   31.0017 C   0  0  0  0  0  0
   20.4050    5.3198   31.6699 O   0  0  0  0  0  0
   22.0670    4.3146   30.3444 C   0  0  0  0  0  0
   23.5463    4.2881   30.6654 C   0  0  0  0  0  0
   24.0687    3.3463   31.5694 C   0  0  0  0  0  0
   23.2230    2.3929   32.0755 O   0  0  0  0  0  0
   23.7556    1.4382   32.9757 C   0  0  0  0  0  0
   25.4406    3.4082   31.8822 C   0  0  0  0  0  0
   26.2693    4.3799   31.3024 C   0  0  0  0  0  0
   25.7512    5.2912   30.3800 C   0  0  0  0  0  0
   24.4002    5.2208   30.0424 C   0  0  0  0  0  0
   17.6091    6.4781   32.0757 H   0  0  0  0  0  0
   18.9581    7.0993   31.2869 H   0  0  0  0  0  0
   17.6114    7.9988   31.1316 H   0  0  0  0  0  0
   17.4620    8.4272   33.6702 H   0  0  0  0  0  0
   18.9283    7.5404   33.9006 H   0  0  0  0  0  0
   23.2491    8.9628   30.1042 H   0  0  0  0  0  0
   22.6139   12.4106   31.0576 H   0  0  0  0  0  0
   23.6269   11.3505   30.1795 H   0  0  0  0  0  0
   22.8005    6.6530   30.1640 H   0  0  0  0  0  0
   21.5642    3.3949   30.6468 H   0  0  0  0  0  0
   21.9292    4.3956   29.2711 H   0  0  0  0  0  0
   22.9569    0.7632   33.2827 H   0  0  0  0  0  0
   24.5314    0.8327   32.5050 H   0  0  0  0  0  0
   24.1528    1.9092   33.8763 H   0  0  0  0  0  0
   25.8967    2.7146   32.5717 H   0  0  0  0  0  0
   27.3169    4.4157   31.5613 H   0  0  0  0  0  0
   26.3948    6.0268   29.9191 H   0  0  0  0  0  0
   24.0234    5.9048   29.2971 H   0  0  0  0  0  0
  1  2  1  0  0  0
  1 25  1  0  0  0
  1 26  1  0  0  0
  1 27  1  0  0  0
  2  3  1  0  0  0
  2 28  1  0  0  0
  2 29  1  0  0  0
  3  4  1  0  0  0
  4 10  1  0  0  0
  4  5  2  0  0  0
  5  6  1  0  0  0
  6  7  2  0  0  0
  6 13  1  0  0  0
  7  8  1  0  0  0
  7 30  1  0  0  0
  8  9  1  0  0  0
  8 10  2  0  0  0
  9 31  1  0  0  0
  9 32  1  0  0  0
 10 11  1  0  0  0
 11 12  3  0  0  0
 13 14  1  0  0  0
 13 33  1  0  0  0
 14 15  2  0  0  0
 14 16  1  0  0  0
 16 17  1  0  0  0
 16 34  1  0  0  0
 16 35  1  0  0  0
 17 24  1  0  0  0
 17 18  2  0  0  0
 18 19  1  0  0  0
 18 21  1  0  0  0
 19 20  1  0  0  0
 20 36  1  0  0  0
 20 37  1  0  0  0
 20 38  1  0  0  0
 21 22  2  0  0  0
 21 39  1  0  0  0
 22 23  1  0  0  0
 22 40  1  0  0  0
 23 24  2  0  0  0
 23 41  1  0  0  0
 24 42  1  0  0  0
M  END
> <i_m_stars>
0

> <s_m_entry_id>
2984

> <s_m_entry_name>
Jnk1_18631-1.1

> <s_m_Source_Path>
C:\Users\yujiethinkpad\Desktop\05A\JNK1

> <s_m_Source_File>
Jnk1_18631-1.sdf

> <i_m_Source_File_Index>
1

> <s_i_glide_gridfile>
glide-grid_JNK1

> <r_i_docking_score>
-6.52309927896995

> <r_i_glide_ecoul>
-3.29014372825623

> <r_i_glide_einternal>
1.98866021633148

> <r_i_glide_emodel>
-37.0167964576526

> <r_i_glide_energy>
-39.8383004665375

> <r_i_glide_erotb>
0.88041336613276

> <r_i_glide_esite>
0

> <r_i_glide_evdw>
-36.5481567382813

> <r_i_glide_gscore>
-6.52309927896995

> <r_i_glide_hbond>
-0.217779572909279

> <r_i_glide_ligand_efficiency>
-0.271795803290414

> <r_i_glide_ligand_efficiency_ln>
-1.56127698297911

> <r_i_glide_ligand_efficiency_sa>
-0.783994760183388

> <r_i_glide_lipo>
-2.71641631656173

> <r_i_glide_metal>
0

> <r_i_glide_rewards>
-2.1483873594792

> <i_i_glide_confnum>
15

> <i_i_glide_lignum>
1

> <i_i_glide_posenum>
195

> <i_i_glide_rotatable_bonds>
7

> <r_i_glide_eff_state_penalty>
0

> <s_m_job_name>
glide-dock_SP_other_4988

> <r_user_dG.exp>
-9.413821

> <r_m_Molecular_weight>
326.35801

> <r_glide_shape_similarity>
0.828748345375061

> <s_m_subgroup_title>
glide-dock_SP_other_4988_lib1

> <s_m_subgroupid>
glide-dock_SP_other_4988_lib1

> <b_m_subgroup_collapsed>
0

$$$$
