18633-1
                    3D
 Schrodinger Suite 2021-2.
 42 43  0  0  1  0            999 V2000
   24.6583   10.7519   30.8419 C   0  0  0  0  0  0
   23.3237   11.1726   30.2490 C   0  0  0  0  0  0
   22.3484   11.3137   31.2648 O   0  0  0  0  0  0
   21.5797   10.2354   31.6501 C   0  0  0  0  0  0
   21.8982    9.0101   31.1804 N   0  0  0  0  0  0
   21.1084    7.9474   31.4368 C   0  0  0  0  0  0
   19.9378    8.1036   32.2024 C   0  0  0  0  0  0
   19.6113    9.3650   32.7127 C   0  0  0  0  0  0
   18.4334    9.4959   33.4290 N   0  0  0  0  0  0
   20.4412   10.4595   32.4369 C   0  0  0  0  0  0
   20.0956   11.7946   32.8696 C   0  0  0  0  0  0
   19.8146   12.8538   33.2150 N   0  0  0  0  0  0
   21.5213    6.6945   30.9041 N   0  0  0  0  0  0
   21.0484    5.4480   31.0868 C   0  0  0  0  0  0
   20.0082    5.1995   31.6696 O   0  0  0  0  0  0
   21.8211    4.2761   30.4715 C   0  0  0  0  0  0
   23.3008    4.2983   30.7916 C   0  0  0  0  0  0
   23.8757    3.3344   31.6355 C   0  0  0  0  0  0
   25.2539    3.3646   31.8811 C   0  0  0  0  0  0
   26.0710    4.3474   31.2997 C   0  0  0  0  0  0
   25.4931    5.3152   30.4528 C   0  0  0  0  0  0
   24.1196    5.2691   30.1914 C   0  0  0  0  0  0
   27.4019    4.2838   31.6188 O   0  0  0  0  0  0
   28.2731    5.1958   30.9868 C   0  0  0  0  0  0
   25.4309   10.7262   30.0714 H   0  0  0  0  0  0
   24.6014    9.7555   31.2773 H   0  0  0  0  0  0
   24.9698   11.4452   31.6227 H   0  0  0  0  0  0
   23.4383   12.1502   29.7803 H   0  0  0  0  0  0
   23.0059   10.4990   29.4500 H   0  0  0  0  0  0
   19.2760    7.2819   32.4166 H   0  0  0  0  0  0
   18.0636   10.4089   33.6571 H   0  0  0  0  0  0
   17.7842    8.7271   33.5029 H   0  0  0  0  0  0
   22.3695    6.7495   30.3712 H   0  0  0  0  0  0
   21.3904    3.3374   30.8204 H   0  0  0  0  0  0
   21.6884    4.2932   29.3899 H   0  0  0  0  0  0
   23.2632    2.5636   32.0846 H   0  0  0  0  0  0
   25.6975    2.6191   32.5253 H   0  0  0  0  0  0
   26.0809    6.0877   29.9803 H   0  0  0  0  0  0
   23.7037    5.9945   29.5083 H   0  0  0  0  0  0
   29.2960    4.9907   31.3056 H   0  0  0  0  0  0
   28.2469    5.0925   29.9021 H   0  0  0  0  0  0
   28.0443    6.2242   31.2575 H   0  0  0  0  0  0
  1  2  1  0  0  0
  1 25  1  0  0  0
  1 26  1  0  0  0
  1 27  1  0  0  0
  2  3  1  0  0  0
  2 28  1  0  0  0
  2 29  1  0  0  0
  3  4  1  0  0  0
  4 10  1  0  0  0
  4  5  2  0  0  0
  5  6  1  0  0  0
  6  7  2  0  0  0
  6 13  1  0  0  0
  7  8  1  0  0  0
  7 30  1  0  0  0
  8  9  1  0  0  0
  8 10  2  0  0  0
  9 31  1  0  0  0
  9 32  1  0  0  0
 10 11  1  0  0  0
 11 12  3  0  0  0
 13 14  1  0  0  0
 13 33  1  0  0  0
 14 15  2  0  0  0
 14 16  1  0  0  0
 16 17  1  0  0  0
 16 34  1  0  0  0
 16 35  1  0  0  0
 17 22  1  0  0  0
 17 18  2  0  0  0
 18 19  1  0  0  0
 18 36  1  0  0  0
 19 20  2  0  0  0
 19 37  1  0  0  0
 20 21  1  0  0  0
 20 23  1  0  0  0
 21 22  2  0  0  0
 21 38  1  0  0  0
 22 39  1  0  0  0
 23 24  1  0  0  0
 24 40  1  0  0  0
 24 41  1  0  0  0
 24 42  1  0  0  0
M  END
> <i_m_stars>
0

> <s_m_entry_id>
2973

> <s_m_entry_name>
Jnk1_18633-1.1

> <s_m_Source_Path>
C:\Users\yujiethinkpad\Desktop\05A\JNK1

> <s_m_Source_File>
Jnk1_18633-1.sdf

> <i_m_Source_File_Index>
1

> <s_i_glide_gridfile>
glide-grid_JNK1

> <r_i_docking_score>
-7.70561123878342

> <r_i_glide_ecoul>
-6.79770517349243

> <r_i_glide_einternal>
8.41587543487549

> <r_i_glide_emodel>
-48.1804800553387

> <r_i_glide_energy>
-42.0671792030334

> <r_i_glide_erotb>
0.88041336613276

> <r_i_glide_esite>
0

> <r_i_glide_evdw>
-35.269474029541

> <r_i_glide_gscore>
-7.70561123878342

> <r_i_glide_hbond>
-0.32438765280622

> <r_i_glide_ligand_efficiency>
-0.321067134949309

> <r_i_glide_ligand_efficiency_ln>
-1.84430635690055

> <r_i_glide_ligand_efficiency_sa>
-0.926117873859859

> <r_i_glide_lipo>
-3.39152994477076

> <r_i_glide_metal>
0

> <r_i_glide_rewards>
-2.08697752983828

> <i_i_glide_confnum>
6

> <i_i_glide_lignum>
3

> <i_i_glide_posenum>
390

> <i_i_glide_rotatable_bonds>
7

> <r_i_glide_eff_state_penalty>
0

> <s_m_job_name>
glide-dock_SP_other_4988

> <r_user_dG.exp>
-9.174299

> <r_m_Molecular_weight>
326.35801

> <r_glide_shape_similarity>
0.885740399360657

> <s_m_subgroup_title>
glide-dock_SP_other_4988_lib1

> <s_m_subgroupid>
glide-dock_SP_other_4988_lib1

> <b_m_subgroup_collapsed>
0

$$$$
