18632-1
                    3D
 Schrodinger Suite 2021-2.
 42 43  0  0  1  0            999 V2000
   24.6856   10.9959   30.8464 C   0  0  0  0  0  0
   23.3082   11.1899   30.2382 C   0  0  0  0  0  0
   22.3450   11.3159   31.2697 O   0  0  0  0  0  0
   21.5778   10.2347   31.6491 C   0  0  0  0  0  0
   21.9026    9.0089   31.1811 N   0  0  0  0  0  0
   21.1109    7.9469   31.4349 C   0  0  0  0  0  0
   19.9381    8.1027   32.2010 C   0  0  0  0  0  0
   19.6121    9.3620   32.7137 C   0  0  0  0  0  0
   18.4435    9.4881   33.4438 N   0  0  0  0  0  0
   20.4395   10.4576   32.4355 C   0  0  0  0  0  0
   20.0964   11.7927   32.8702 C   0  0  0  0  0  0
   19.8179   12.8521   33.2164 N   0  0  0  0  0  0
   21.5229    6.6932   30.9008 N   0  0  0  0  0  0
   21.0527    5.4437   31.0855 C   0  0  0  0  0  0
   20.0114    5.1992   31.6679 O   0  0  0  0  0  0
   21.8210    4.2533   30.4843 C   0  0  0  0  0  0
   23.3078    4.2708   30.8045 C   0  0  0  0  0  0
   24.0958    5.2588   30.2024 C   0  0  0  0  0  0
   25.4726    5.3651   30.4597 C   0  0  0  0  0  0
   26.2437    6.3774   29.9470 O   0  0  0  0  0  0
   25.5748    7.5550   29.5240 C   0  0  0  0  0  0
   26.0845    4.3959   31.2705 C   0  0  0  0  0  0
   25.3114    3.3765   31.8580 C   0  0  0  0  0  0
   23.9219    3.3152   31.6391 C   0  0  0  0  0  0
   25.4393   10.9136   30.0625 H   0  0  0  0  0  0
   24.7269   10.0890   31.4481 H   0  0  0  0  0  0
   24.9499   11.8361   31.4871 H   0  0  0  0  0  0
   23.3009   12.1218   29.6745 H   0  0  0  0  0  0
   23.0773   10.4120   29.5108 H   0  0  0  0  0  0
   19.2765    7.2800   32.4169 H   0  0  0  0  0  0
   18.0604   10.4004   33.6541 H   0  0  0  0  0  0
   17.7857    8.7249   33.4912 H   0  0  0  0  0  0
   22.3687    6.7479   30.3626 H   0  0  0  0  0  0
   21.3852    3.3194   30.8430 H   0  0  0  0  0  0
   21.6830    4.2605   29.4029 H   0  0  0  0  0  0
   23.6224    5.9456   29.5204 H   0  0  0  0  0  0
   26.3103    8.3336   29.3207 H   0  0  0  0  0  0
   25.0246    7.3905   28.5968 H   0  0  0  0  0  0
   24.8943    7.9321   30.2892 H   0  0  0  0  0  0
   27.1459    4.4486   31.4651 H   0  0  0  0  0  0
   25.7868    2.6411   32.4901 H   0  0  0  0  0  0
   23.3364    2.5301   32.0961 H   0  0  0  0  0  0
  1  2  1  0  0  0
  1 25  1  0  0  0
  1 26  1  0  0  0
  1 27  1  0  0  0
  2  3  1  0  0  0
  2 28  1  0  0  0
  2 29  1  0  0  0
  3  4  1  0  0  0
  4 10  1  0  0  0
  4  5  2  0  0  0
  5  6  1  0  0  0
  6  7  2  0  0  0
  6 13  1  0  0  0
  7  8  1  0  0  0
  7 30  1  0  0  0
  8  9  1  0  0  0
  8 10  2  0  0  0
  9 31  1  0  0  0
  9 32  1  0  0  0
 10 11  1  0  0  0
 11 12  3  0  0  0
 13 14  1  0  0  0
 13 33  1  0  0  0
 14 15  2  0  0  0
 14 16  1  0  0  0
 16 17  1  0  0  0
 16 34  1  0  0  0
 16 35  1  0  0  0
 17 24  1  0  0  0
 17 18  2  0  0  0
 18 19  1  0  0  0
 18 36  1  0  0  0
 19 20  1  0  0  0
 19 22  2  0  0  0
 20 21  1  0  0  0
 21 37  1  0  0  0
 21 38  1  0  0  0
 21 39  1  0  0  0
 22 23  1  0  0  0
 22 40  1  0  0  0
 23 24  2  0  0  0
 23 41  1  0  0  0
 24 42  1  0  0  0
M  END
> <i_m_stars>
0

> <s_m_entry_id>
2980

> <s_m_entry_name>
Jnk1_18632-1.1

> <s_m_Source_Path>
C:\Users\yujiethinkpad\Desktop\05A\JNK1

> <s_m_Source_File>
Jnk1_18632-1.sdf

> <i_m_Source_File_Index>
1

> <s_i_glide_gridfile>
glide-grid_JNK1

> <r_i_docking_score>
-7.49669440080879

> <r_i_glide_ecoul>
-6.01143217086792

> <r_i_glide_einternal>
7.42625951766968

> <r_i_glide_emodel>
-50.0391654451063

> <r_i_glide_energy>
-42.0669131278992

> <r_i_glide_erotb>
0.88041336613276

> <r_i_glide_esite>
0

> <r_i_glide_evdw>
-36.0554809570313

> <r_i_glide_gscore>
-7.49669440080879

> <r_i_glide_hbond>
-0.320538767295542

> <r_i_glide_ligand_efficiency>
-0.312362266700366

> <r_i_glide_ligand_efficiency_ln>
-1.7943029710042

> <r_i_glide_ligand_efficiency_sa>
-0.901008688903219

> <r_i_glide_lipo>
-3.29764020668972

> <r_i_glide_metal>
0

> <r_i_glide_rewards>
-2.05443991947454

> <i_i_glide_confnum>
5

> <i_i_glide_lignum>
2

> <i_i_glide_posenum>
377

> <i_i_glide_rotatable_bonds>
7

> <r_i_glide_eff_state_penalty>
0

> <s_m_job_name>
glide-dock_SP_other_4988

> <r_user_dG.exp>
-9.083236

> <r_m_Molecular_weight>
326.35801

> <r_glide_shape_similarity>
0.90461391210556

> <s_m_subgroup_title>
glide-dock_SP_other_4988_lib1

> <s_m_subgroupid>
glide-dock_SP_other_4988_lib1

> <b_m_subgroup_collapsed>
0

$$$$
