18652-1
                    3D
 Schrodinger Suite 2021-2.
 55 56  0  0  1  0            999 V2000
   23.1328   10.8832   28.9597 C   0  0  0  0  0  0
   23.5438   11.0973   30.4372 C   0  0  0  0  0  0
   24.4380   12.3490   30.5662 C   0  0  0  0  0  0
   22.3920   11.3148   31.2695 O   0  0  0  0  0  0
   21.5894   10.2488   31.6539 C   0  0  0  0  0  0
   21.9067    9.0108   31.1882 N   0  0  0  0  0  0
   21.1075    7.9477   31.4389 C   0  0  0  0  0  0
   19.9245    8.1056   32.2046 C   0  0  0  0  0  0
   19.6003    9.3752   32.7234 C   0  0  0  0  0  0
   18.4137    9.5025   33.4495 N   0  0  0  0  0  0
   20.4363   10.4828   32.4407 C   0  0  0  0  0  0
   20.0940   11.8301   32.8814 C   0  0  0  0  0  0
   19.8179   12.8930   33.2329 N   0  0  0  0  0  0
   21.5278    6.6919   30.9015 N   0  0  0  0  0  0
   21.0484    5.4388   31.0858 C   0  0  0  0  0  0
   20.0027    5.1996   31.6697 O   0  0  0  0  0  0
   21.8168    4.2420   30.4780 C   0  0  0  0  0  0
   23.3176    4.2507   30.8082 C   0  0  0  0  0  0
   23.9482    3.2828   31.6519 C   0  0  0  0  0  0
   23.2106    2.2494   32.1896 O   0  0  0  0  0  0
   23.8320    1.3631   33.1232 C   0  0  0  0  0  0
   25.3480    3.3746   31.8665 C   0  0  0  0  0  0
   26.1133    4.3972   31.2717 C   0  0  0  0  0  0
   27.9143    4.2836   31.4849 S   0  0  0  0  0  0
   28.5343    5.5988   31.2664 O   0  0  0  0  0  0
   28.1906    3.5539   32.7361 O   0  0  0  0  0  0
   28.4363    3.1935   30.0847 C   0  0  0  0  0  0
   25.4937    5.3773   30.4509 C   0  0  0  0  0  0
   24.1057    5.2570   30.2018 C   0  0  0  0  0  0
   26.2454    6.3982   29.9005 O   0  0  0  0  0  0
   25.5653    7.5998   29.5298 C   0  0  0  0  0  0
   24.0085   10.7638   28.3202 H   0  0  0  0  0  0
   22.5638   11.7342   28.5831 H   0  0  0  0  0  0
   22.5121    9.9974   28.8246 H   0  0  0  0  0  0
   24.1179   10.2431   30.7973 H   0  0  0  0  0  0
   25.3363   12.2572   29.9551 H   0  0  0  0  0  0
   23.9066   13.2456   30.2443 H   0  0  0  0  0  0
   24.7557   12.5050   31.5976 H   0  0  0  0  0  0
   19.2620    7.2832   32.4181 H   0  0  0  0  0  0
   18.0341   10.4172   33.6819 H   0  0  0  0  0  0
   17.7748    8.7201   33.5525 H   0  0  0  0  0  0
   22.3723    6.7555   30.3532 H   0  0  0  0  0  0
   21.3645    3.3109   30.8210 H   0  0  0  0  0  0
   21.6793    4.2588   29.3966 H   0  0  0  0  0  0
   23.0856    0.6643   33.5016 H   0  0  0  0  0  0
   24.6222    0.7715   32.6526 H   0  0  0  0  0  0
   24.2372    1.9080   33.9749 H   0  0  0  0  0  0
   25.8710    2.6430   32.4613 H   0  0  0  0  0  0
   29.5141    3.0333   30.1248 H   0  0  0  0  0  0
   27.9212    2.2364   30.1592 H   0  0  0  0  0  0
   28.1751    3.6772   29.1444 H   0  0  0  0  0  0
   23.6246    5.9344   29.5159 H   0  0  0  0  0  0
   26.2937    8.3766   29.2978 H   0  0  0  0  0  0
   24.9645    7.4527   28.6329 H   0  0  0  0  0  0
   24.9294    7.9699   30.3360 H   0  0  0  0  0  0
  1  2  1  0  0  0
  1 32  1  0  0  0
  1 33  1  0  0  0
  1 34  1  0  0  0
  2  3  1  0  0  0
  2  4  1  0  0  0
  2 35  1  0  0  0
  3 36  1  0  0  0
  3 37  1  0  0  0
  3 38  1  0  0  0
  4  5  1  0  0  0
  5 11  1  0  0  0
  5  6  2  0  0  0
  6  7  1  0  0  0
  7  8  2  0  0  0
  7 14  1  0  0  0
  8  9  1  0  0  0
  8 39  1  0  0  0
  9 10  1  0  0  0
  9 11  2  0  0  0
 10 40  1  0  0  0
 10 41  1  0  0  0
 11 12  1  0  0  0
 12 13  3  0  0  0
 14 15  1  0  0  0
 14 42  1  0  0  0
 15 16  2  0  0  0
 15 17  1  0  0  0
 17 18  1  0  0  0
 17 43  1  0  0  0
 17 44  1  0  0  0
 18 29  1  0  0  0
 18 19  2  0  0  0
 19 20  1  0  0  0
 19 22  1  0  0  0
 20 21  1  0  0  0
 21 45  1  0  0  0
 21 46  1  0  0  0
 21 47  1  0  0  0
 22 23  2  0  0  0
 22 48  1  0  0  0
 23 24  1  0  0  0
 23 28  1  0  0  0
 24 25  2  0  0  0
 24 26  2  0  0  0
 24 27  1  0  0  0
 27 49  1  0  0  0
 27 50  1  0  0  0
 27 51  1  0  0  0
 28 29  2  0  0  0
 28 30  1  0  0  0
 29 52  1  0  0  0
 30 31  1  0  0  0
 31 53  1  0  0  0
 31 54  1  0  0  0
 31 55  1  0  0  0
M  END
> <i_m_stars>
0

> <s_m_entry_id>
2979

> <s_m_entry_name>
Jnk1_18652-1.1

> <s_m_Source_Path>
C:\Users\yujiethinkpad\Desktop\05A\JNK1

> <s_m_Source_File>
Jnk1_18652-1.sdf

> <i_m_Source_File_Index>
1

> <s_i_glide_gridfile>
glide-grid_JNK1

> <r_i_docking_score>
-7.52657058775591

> <r_i_glide_ecoul>
-5.28426170349121

> <r_i_glide_einternal>
8.19382286071777

> <r_i_glide_emodel>
-58.0709663078621

> <r_i_glide_energy>
-46.1053562164307

> <r_i_glide_erotb>
0.49797551862125

> <r_i_glide_esite>
0

> <r_i_glide_evdw>
-40.8210945129395

> <r_i_glide_gscore>
-7.52657058775591

> <r_i_glide_hbond>
-0.351101282940456

> <r_i_glide_ligand_efficiency>
-0.242792599605029

> <r_i_glide_ligand_efficiency_ln>
-1.69747232922605

> <r_i_glide_ligand_efficiency_sa>
-0.762703974070011

> <r_i_glide_lipo>
-3.42429954894763

> <r_i_glide_metal>
0

> <r_i_glide_rewards>
-1.41545129331843

> <i_i_glide_confnum>
18

> <i_i_glide_lignum>
10

> <i_i_glide_posenum>
108

> <i_i_glide_rotatable_bonds>
9

> <r_i_glide_eff_state_penalty>
0

> <s_m_job_name>
glide-dock_SP_other_4988

> <r_user_dG.exp>
-10.682977

> <r_m_Molecular_weight>
448.50148

> <r_glide_shape_similarity>
0.914717495441437

> <s_m_subgroup_title>
glide-dock_SP_other_4988_lib1

> <s_m_subgroupid>
glide-dock_SP_other_4988_lib1

> <b_m_subgroup_collapsed>
0

$$$$
