18658-1
                    3D
 Schrodinger Suite 2021-2.
 47 48  0  0  1  0            999 V2000
   25.4455   12.3830   29.6691 O   0  0  0  0  0  0
   24.0655   12.3782   29.9902 C   0  0  0  0  0  0
   23.6582   11.0757   30.6977 C   0  0  0  0  0  0
   22.3756   11.3114   31.2702 O   0  0  0  0  0  0
   21.5813   10.2443   31.6503 C   0  0  0  0  0  0
   21.8979    9.0110   31.1772 N   0  0  0  0  0  0
   21.1030    7.9461   31.4346 C   0  0  0  0  0  0
   19.9231    8.0963   32.2093 C   0  0  0  0  0  0
   19.5967    9.3653   32.7240 C   0  0  0  0  0  0
   18.4141    9.4913   33.4505 N   0  0  0  0  0  0
   20.4295   10.4723   32.4377 C   0  0  0  0  0  0
   20.0864   11.8142   32.8845 C   0  0  0  0  0  0
   19.8067   12.8729   33.2441 N   0  0  0  0  0  0
   21.5264    6.6900   30.8998 N   0  0  0  0  0  0
   21.0448    5.4369   31.0862 C   0  0  0  0  0  0
   19.9963    5.2003   31.6695 O   0  0  0  0  0  0
   21.8129    4.2327   30.4828 C   0  0  0  0  0  0
   23.3121    4.2454   30.8089 C   0  0  0  0  0  0
   23.9496    3.2781   31.6493 C   0  0  0  0  0  0
   23.2110    2.2453   32.1845 O   0  0  0  0  0  0
   23.8318    1.3065   33.0598 C   0  0  0  0  0  0
   25.3484    3.3753   31.8667 C   0  0  0  0  0  0
   26.1039    4.4008   31.2699 C   0  0  0  0  0  0
   25.4755    5.3550   30.4290 C   0  0  0  0  0  0
   24.0967    5.2446   30.1902 C   0  0  0  0  0  0
   26.1102    6.3996   29.7944 O   0  0  0  0  0  0
   27.5249    6.3597   29.7257 C   0  0  0  0  0  0
   25.6421   11.6156   29.1486 H   0  0  0  0  0  0
   23.8588   13.2500   30.6176 H   0  0  0  0  0  0
   23.4832   12.4869   29.0719 H   0  0  0  0  0  0
   23.6748   10.2630   29.9735 H   0  0  0  0  0  0
   24.3574   10.8269   31.5006 H   0  0  0  0  0  0
   19.2628    7.2735   32.4271 H   0  0  0  0  0  0
   18.0284   10.4055   33.6730 H   0  0  0  0  0  0
   17.7738    8.7088   33.5514 H   0  0  0  0  0  0
   22.3739    6.7546   30.3554 H   0  0  0  0  0  0
   21.3639    3.3030   30.8334 H   0  0  0  0  0  0
   21.6809    4.2445   29.4011 H   0  0  0  0  0  0
   23.0819    0.5992   33.4137 H   0  0  0  0  0  0
   24.6026    0.7343   32.5423 H   0  0  0  0  0  0
   24.2644    1.7947   33.9343 H   0  0  0  0  0  0
   25.8765    2.6672   32.4851 H   0  0  0  0  0  0
   27.1633    4.4390   31.4705 H   0  0  0  0  0  0
   23.6454    5.9466   29.5057 H   0  0  0  0  0  0
   27.8856    7.2186   29.1589 H   0  0  0  0  0  0
   27.9780    6.3995   30.7164 H   0  0  0  0  0  0
   27.8678    5.4562   29.2189 H   0  0  0  0  0  0
  1  2  1  0  0  0
  1 28  1  0  0  0
  2  3  1  0  0  0
  2 29  1  0  0  0
  2 30  1  0  0  0
  3  4  1  0  0  0
  3 31  1  0  0  0
  3 32  1  0  0  0
  4  5  1  0  0  0
  5 11  1  0  0  0
  5  6  2  0  0  0
  6  7  1  0  0  0
  7  8  2  0  0  0
  7 14  1  0  0  0
  8  9  1  0  0  0
  8 33  1  0  0  0
  9 10  1  0  0  0
  9 11  2  0  0  0
 10 34  1  0  0  0
 10 35  1  0  0  0
 11 12  1  0  0  0
 12 13  3  0  0  0
 14 15  1  0  0  0
 14 36  1  0  0  0
 15 16  2  0  0  0
 15 17  1  0  0  0
 17 18  1  0  0  0
 17 37  1  0  0  0
 17 38  1  0  0  0
 18 25  1  0  0  0
 18 19  2  0  0  0
 19 20  1  0  0  0
 19 22  1  0  0  0
 20 21  1  0  0  0
 21 39  1  0  0  0
 21 40  1  0  0  0
 21 41  1  0  0  0
 22 23  2  0  0  0
 22 42  1  0  0  0
 23 24  1  0  0  0
 23 43  1  0  0  0
 24 25  2  0  0  0
 24 26  1  0  0  0
 25 44  1  0  0  0
 26 27  1  0  0  0
 27 45  1  0  0  0
 27 46  1  0  0  0
 27 47  1  0  0  0
M  END
> <i_m_stars>
0

> <s_m_entry_id>
2983

> <s_m_entry_name>
Jnk1_18658-1.1

> <s_m_Source_Path>
C:\Users\yujiethinkpad\Desktop\05A\JNK1

> <s_m_Source_File>
Jnk1_18658-1.sdf

> <i_m_Source_File_Index>
1

> <s_i_glide_gridfile>
glide-grid_JNK1

> <r_i_docking_score>
-7.42120405512228

> <r_i_glide_ecoul>
-7.33626174926758

> <r_i_glide_einternal>
6.48121976852417

> <r_i_glide_emodel>
-60.4521693011315

> <r_i_glide_energy>
-44.522289276123

> <r_i_glide_erotb>
0.974981300053865

> <r_i_glide_esite>
0

> <r_i_glide_evdw>
-37.1860275268555

> <r_i_glide_gscore>
-7.42120405512228

> <r_i_glide_hbond>
-0.358213091639884

> <r_i_glide_ligand_efficiency>
-0.274859409448973

> <r_i_glide_ligand_efficiency_ln>
-1.72753395592159

> <r_i_glide_ligand_efficiency_sa>
-0.824578227441029

> <r_i_glide_lipo>
-3.31634332962217

> <r_i_glide_metal>
0

> <r_i_glide_rewards>
-1.76188829518118

> <i_i_glide_confnum>
36

> <i_i_glide_lignum>
11

> <i_i_glide_posenum>
128

> <i_i_glide_rotatable_bonds>
10

> <r_i_glide_eff_state_penalty>
0

> <s_m_job_name>
glide-dock_SP_other_4988

> <r_user_dG.exp>
-9.699398

> <r_m_Molecular_weight>
372.3839

> <r_glide_shape_similarity>
0.955797970294952

> <s_m_subgroup_title>
glide-dock_SP_other_4988_lib1

> <s_m_subgroupid>
glide-dock_SP_other_4988_lib1

> <b_m_subgroup_collapsed>
0

$$$$
