ejm_46
                    3D
 Schrodinger Suite 2021-2.
 36 38  0  0  1  0            999 V2000
   -3.3076   22.6806  -29.5252 C   0  0  0  0  0  0
   -3.9432   21.7942  -28.6345 C   0  0  0  0  0  0
   -3.2438   21.2228  -27.5799 C   0  0  0  0  0  0
   -5.2721   25.1291  -31.6161 C   0  0  0  0  0  0
   -4.1012   23.1837  -30.6663 C   0  0  0  0  0  0
   -5.9130   24.5210  -32.7164 C   0  0  0  0  0  0
   -6.7627   25.2942  -33.5059 C   0  0  0  0  0  0
   -1.9568   23.0154  -29.3137 C   0  0  0  0  0  0
   -1.9126   21.5510  -27.3856 C   0  0  0  0  0  0
   -1.2729   22.4413  -28.2466 C   0  0  0  0  0  0
   -5.6247   21.4482  -28.8272 Cl  0  0  0  0  0  0
   -4.4271   22.3836  -31.5491 O   0  0  0  0  0  0
   -4.4757   24.4742  -30.6727 N   0  0  0  0  0  0
   -6.9364   26.5887  -33.2427 N   0  0  0  0  0  0
   -6.3458   27.2122  -32.2223 C   0  0  0  0  0  0
   -5.5150   26.4796  -31.3701 C   0  0  0  0  0  0
   -6.5890   28.5867  -32.0076 N   0  0  0  0  0  0
   -5.7763   29.4185  -31.2872 C   0  0  0  0  0  0
   -4.7619   29.0024  -30.7581 O   0  0  0  0  0  0
   -6.1367   30.8904  -31.1308 C   0  0  0  0  0  0
   -5.6968   31.6304  -29.8600 C   0  0  0  0  0  0
   -5.0080   31.9275  -31.1891 C   0  0  0  0  0  0
   -1.1245   24.1655  -30.3148 Cl  0  0  0  0  0  0
   -3.7383   20.5275  -26.9177 H   0  0  0  0  0  0
   -5.7407   23.4769  -32.9323 H   0  0  0  0  0  0
   -7.2853   24.8446  -34.3372 H   0  0  0  0  0  0
   -1.3637   21.1164  -26.5633 H   0  0  0  0  0  0
   -0.2341   22.6840  -28.0777 H   0  0  0  0  0  0
   -4.1104   24.9825  -29.8801 H   0  0  0  0  0  0
   -5.0606   26.9636  -30.5182 H   0  0  0  0  0  0
   -7.4126   29.0211  -32.3990 H   0  0  0  0  0  0
   -7.0916   31.1975  -31.5573 H   0  0  0  0  0  0
   -4.9980   30.8937  -29.4638 H   0  0  0  0  0  0
   -6.4336   32.4336  -29.8636 H   0  0  0  0  0  0
   -5.5881   32.7984  -31.4943 H   0  0  0  0  0  0
   -4.1526   31.2586  -31.0946 H   0  0  0  0  0  0
  1  2  1  0  0  0
  1  5  1  0  0  0
  1  8  2  0  0  0
  2  3  2  0  0  0
  2 11  1  0  0  0
  3  9  1  0  0  0
  3 24  1  0  0  0
  4  6  2  0  0  0
  4 13  1  0  0  0
  4 16  1  0  0  0
  5 12  2  0  0  0
  5 13  1  0  0  0
  6  7  1  0  0  0
  6 25  1  0  0  0
  7 14  2  0  0  0
  7 26  1  0  0  0
  8 10  1  0  0  0
  8 23  1  0  0  0
  9 10  2  0  0  0
  9 27  1  0  0  0
 10 28  1  0  0  0
 13 29  1  0  0  0
 14 15  1  0  0  0
 15 16  2  0  0  0
 15 17  1  0  0  0
 16 30  1  0  0  0
 17 18  1  0  0  0
 17 31  1  0  0  0
 18 19  2  0  0  0
 18 20  1  0  0  0
 20 21  1  0  0  0
 20 22  1  0  0  0
 20 32  1  0  0  0
 21 22  1  0  0  0
 21 33  1  0  0  0
 21 34  1  0  0  0
 22 35  1  0  0  0
 22 36  1  0  0  0
M  END
> <i_m_stars>
0

> <s_m_entry_id>
702

> <s_m_entry_name>
Structure587

> <s_m_Source_Path>
C:\Users\yujiethinkpad\Desktop\05A\Tyk2

> <s_m_Source_File>
4gih.pdb

> <i_m_Source_File_Index>
1

> <s_pdb_PDB_TITLE>
TYK2 (JH1) IN COMPLEX WITH 2,6-DICHLORO-N-{2-[(CYCLOPROPYLCARBONYL) AMINO]PYRIDIN-4-YL}BENZAMIDE

> <s_pdb_PDB_ID>
4GIH

> <r_pdb_PDB_CRYST1_a>
36.165

> <r_pdb_PDB_CRYST1_b>
74.378

> <r_pdb_PDB_CRYST1_c>
105.855

> <r_pdb_PDB_CRYST1_alpha>
90

> <r_pdb_PDB_CRYST1_beta>
90

> <r_pdb_PDB_CRYST1_gamma>
90

> <s_pdb_PDB_CRYST1_Space_Group>
P 21 21 21

> <i_pdb_PDB_CRYST1_z>
4

> <s_pdb_PDB_CLASSIFICATION>
TRANSFERASE/TRANSFERASE INHIBITOR

> <s_pdb_PDB_DEPOSITION_DATE>
08-AUG-12

> <s_pdb_PDB_format_version>
3.30

> <r_pdb_PDB_R>
0.188

> <r_pdb_PDB_Rfree>
0.217

> <r_pdb_PDB_RESOLUTION>
2

> <s_pdb_PDB_EXPDTA>
X-RAY DIFFRACTION

> <r_pdb_PDB_EXPDTA_TEMPERATURE>
173

> <r_pdb_PDB_EXPDTA_PH>
6.5

> <s_pdb_PDB_REMARK_350_Biomolecule_1_Transform_1_Chains>
A

> <s_pdb_PDB_REMARK_350_Biomolecule_1_Transform_1_Matrix_1>
1.000000 0.000000 0.000000   0.000000;0.000000 1.000000 0.000000   0.000000;0.000000 0.000000 1.000000   0.000000

> <s_ppw_entry_id_backup>
569

> <b_ppw_prepared>
1

> <s_ppw_prepared_with_version>
2021-2

> <b_ppw_assigned_bond_orders>
1

> <b_ppw_added_hydrogens>
1

> <b_ppw_treated_metals>
1

> <b_ppw_created_disulfur>
1

> <s_ppw_het_states>
eJxdkrFuwzAMRH+F0JykIi06ibNl6lp0LDwYaaa6dgd3CIL8e0Ux7UX1dDhQeuKdr4FDR2/5k6ZpVxT7FZncQu4g938yRUiGFMgGMkEqJGgJtARaAk1BU9AUNAVNQVPQFDQFTQvN9H1935zv6xbDNq2NzBLE5AlVhq3GSM8TYGTomUll7P5N2J6MrD0kqQwcKdeV9BlFeIKCOjx+fjT04Y70OyHI36NntOAPk8oAVgvWymD04pVIZeAdJr2e2kAN2sLIzjpuMvYa7IH5142bJrbbWx4xO7wuw3Kmr/M0jMulK8ORPk7D+PQ5jwd6Xh/n6Z1O8/e0dCQHesk3hL6//QAzpqTk

> <s_m_job_name>
align_ligands_0000

> <i_phase_Input_Structure_Number>
1

> <i_phase_Structure_Number>
1

> <r_phase_Similarity_to_Reference>
1

> <i_phase_Reference_Structure>
1

> <s_phase_Alignment_Method>


> <s_phase_Alignment_Reason>


> <s_phase_Core_SMARTS>


> <r_m_RMSD_582>
0.146307743411202

> <r_m_RMSD_587>
0

> <s_m_subgroup_title>
align_ligands_0000

> <s_m_subgroupid>
align_ligands_0000

> <b_m_subgroup_collapsed>
0

$$$$
