/home/yujie/leadopt/data/result/selection/CDK9/lig_20.sdf:1
                    3D
 Schrodinger Suite 2021-2.
 69 73  0  0  1  0            999 V2000
  -42.7762  -31.9458   -2.5943 C   0  0  0  0  0  0
  -41.8211  -33.0965   -2.7476 C   0  0  0  0  0  0
  -40.6686  -33.0654   -3.4873 N   0  3  0  0  0  0
  -40.0890  -34.3365   -3.5149 C   0  0  0  0  0  0
  -39.0305  -34.8561   -4.2542 C   0  0  0  0  0  0
  -38.8058  -36.2447   -4.1260 C   0  0  0  0  0  0
  -39.5326  -37.0453   -3.2087 C   0  0  0  0  0  0
  -40.4913  -36.4575   -2.3572 C   0  0  0  0  0  0
  -40.8421  -35.1415   -2.6306 C   0  0  0  0  0  0
  -41.9570  -34.3745   -2.2590 N   0  0  0  0  0  0
  -43.0601  -35.0345   -1.4977 C   0  0  0  0  0  0
  -44.4566  -34.7430   -2.1034 C   0  0  0  0  0  0
  -42.9854  -34.7011   -0.0017 C   0  0  0  0  0  0
  -39.3479  -38.5059   -3.1744 C   0  0  0  0  0  0
  -38.0591  -39.0740   -3.2740 C   0  0  0  0  0  0
  -37.9102  -40.4756   -3.2477 C   0  0  0  0  0  0
  -38.9300  -41.3555   -3.1344 N   0  0  0  0  0  0
  -40.1601  -40.7816   -3.0449 C   0  0  0  0  0  0
  -40.4593  -39.3866   -3.0557 C   0  0  0  0  0  0
  -41.8865  -39.2553   -2.9442 C   0  0  0  0  0  0
  -42.3927  -40.5224   -2.8120 C   0  0  0  0  0  0
  -41.3579  -41.4411   -2.8647 N   0  0  0  0  0  0
  -43.8245  -40.9077   -2.7574 C   0  0  0  0  0  0
  -44.1408  -42.0439   -3.7161 C   0  0  0  0  0  0
  -45.6168  -41.9786   -4.0199 C   0  0  0  0  0  0
  -46.4325  -42.1553   -2.8097 N   0  0  1  0  0  0
  -45.9807  -41.3860   -1.6206 C   0  0  0  0  0  0
  -44.4427  -41.3141   -1.4169 C   0  0  0  0  0  0
  -47.8797  -41.8630   -3.0639 C   0  0  0  0  0  0
  -48.3694  -41.9619   -4.5328 C   0  0  0  0  0  0
  -48.6647  -40.9137   -5.1144 O   0  0  0  0  0  0
  -48.3941  -43.1745   -5.1490 N   0  0  0  0  0  0
  -48.7088  -43.3116   -6.5803 C   0  0  0  0  0  0
  -48.0490  -44.4451   -4.4834 C   0  0  0  0  0  0
  -41.4952  -42.4456   -2.7714 H   0  0  0  0  0  0
  -43.2112  -31.9410   -1.5947 H   0  0  0  0  0  0
  -42.2542  -30.9992   -2.7328 H   0  0  0  0  0  0
  -43.5753  -32.0166   -3.3318 H   0  0  0  0  0  0
  -38.4606  -34.2667   -4.9545 H   0  0  0  0  0  0
  -38.0578  -36.7092   -4.7535 H   0  0  0  0  0  0
  -41.0356  -37.0584   -1.6447 H   0  0  0  0  0  0
  -42.9454  -36.1115   -1.5928 H   0  0  0  0  0  0
  -45.2161  -35.3714   -1.6372 H   0  0  0  0  0  0
  -44.7632  -33.7088   -1.9547 H   0  0  0  0  0  0
  -44.4737  -34.9507   -3.1738 H   0  0  0  0  0  0
  -43.7842  -35.1977    0.5480 H   0  0  0  0  0  0
  -42.0354  -35.0175    0.4312 H   0  0  0  0  0  0
  -43.0945  -33.6272    0.1445 H   0  0  0  0  0  0
  -37.1791  -38.4524   -3.3581 H   0  0  0  0  0  0
  -36.9227  -40.9061   -3.3163 H   0  0  0  0  0  0
  -42.4578  -38.3389   -2.9664 H   0  0  0  0  0  0
  -44.3604  -40.0175   -3.0936 H   0  0  0  0  0  0
  -43.8367  -43.0174   -3.3274 H   0  0  0  0  0  0
  -43.6235  -41.9005   -4.6528 H   0  0  0  0  0  0
  -45.8176  -42.7485   -4.7605 H   0  0  0  0  0  0
  -45.8353  -41.0203   -4.4877 H   0  0  0  0  0  0
  -46.3248  -40.3531   -1.6951 H   0  0  0  0  0  0
  -46.4619  -41.8001   -0.7363 H   0  0  0  0  0  0
  -44.2085  -40.5709   -0.6552 H   0  0  0  0  0  0
  -44.0423  -42.2673   -1.0673 H   0  0  0  0  0  0
  -48.1057  -40.8371   -2.7689 H   0  0  0  0  0  0
  -48.4979  -42.4776   -2.4077 H   0  0  0  0  0  0
  -49.4189  -44.1241   -6.7390 H   0  0  0  0  0  0
  -47.8011  -43.5409   -7.1409 H   0  0  0  0  0  0
  -49.1513  -42.4160   -7.0193 H   0  0  0  0  0  0
  -48.3497  -44.4666   -3.4352 H   0  0  0  0  0  0
  -48.5542  -45.2869   -4.9579 H   0  0  0  0  0  0
  -46.9794  -44.6453   -4.5358 H   0  0  0  0  0  0
  -40.3608  -32.2320   -3.9676 H   0  0  0  0  0  0
  1  2  1  0  0  0
  1 36  1  0  0  0
  1 37  1  0  0  0
  1 38  1  0  0  0
  2 10  1  0  0  0
  2  3  2  0  0  0
  3  4  1  0  0  0
  3 69  1  0  0  0
  4  9  2  0  0  0
  4  5  1  0  0  0
  5  6  2  0  0  0
  5 39  1  0  0  0
  6  7  1  0  0  0
  6 40  1  0  0  0
  7  8  2  0  0  0
  7 14  1  0  0  0
  8  9  1  0  0  0
  8 41  1  0  0  0
  9 10  1  0  0  0
 10 11  1  0  0  0
 11 12  1  0  0  0
 11 13  1  0  0  0
 11 42  1  0  0  0
 12 43  1  0  0  0
 12 44  1  0  0  0
 12 45  1  0  0  0
 13 46  1  0  0  0
 13 47  1  0  0  0
 13 48  1  0  0  0
 14 19  1  0  0  0
 14 15  2  0  0  0
 15 16  1  0  0  0
 15 49  1  0  0  0
 16 17  2  0  0  0
 16 50  1  0  0  0
 17 18  1  0  0  0
 18 22  1  0  0  0
 18 19  2  0  0  0
 19 20  1  0  0  0
 20 21  2  0  0  0
 20 51  1  0  0  0
 21 22  1  0  0  0
 21 23  1  0  0  0
 22 35  1  0  0  0
 23 28  1  0  0  0
 23 24  1  0  0  0
 23 52  1  0  0  0
 24 25  1  0  0  0
 24 53  1  0  0  0
 24 54  1  0  0  0
 25 26  1  0  0  0
 25 55  1  0  0  0
 25 56  1  0  0  0
 26 27  1  0  0  0
 26 29  1  0  0  0
 27 28  1  0  0  0
 27 57  1  0  0  0
 27 58  1  0  0  0
 28 59  1  0  0  0
 28 60  1  0  0  0
 29 30  1  0  0  0
 29 61  1  0  0  0
 29 62  1  0  0  0
 30 31  2  0  0  0
 30 32  1  0  0  0
 32 33  1  0  0  0
 32 34  1  0  0  0
 33 63  1  0  0  0
 33 64  1  0  0  0
 33 65  1  0  0  0
 34 66  1  0  0  0
 34 67  1  0  0  0
 34 68  1  0  0  0
M  CHG  1   3   1
M  END
> <s_m_entry_id>
264

> <s_m_entry_name>
CDK9_lig_20.1

> <s_m_Source_Path>
C:\Users\yujiethinkpad\Desktop\selection\selection\CDK9_pose

> <s_m_Source_File>
CDK9_lig_20.sdf

> <i_m_Source_File_Index>
1

> <i_lp_mmshare_version>
51139

> <i_f3d_flags>
0

> <s_epik_input>
W0NIM11jKG4xKW4oW0NIXShbQ0gzXSlbQ0gzXSljKGMxMilbY0hdYyhbY0hdW2NIXTIpLWMoW2NIXVtjSF1uMyljKGMzNClbY0hdYyhbbkhdNClbQ0hdNVtDSDJdW0NIMl1OKFtDSDJdW0NIMl01KVtDSDJdQyg9TylOKFtDSDNdKVtDSDNd

> <s_epik_cmdline>
J2VwaWtfcHl0aG9uJywgJy1waHQnLCAnMi4wJywgJy1waCcsICc3LjAnLCAnLXRuJywgJzgnLCAnLW1hJywgJzIwMCcsICctaW1hZScsICc8aW5maWxlLm1hZT4nLCAnLW9tYWUnLCAnPG91dGZpbGUubWFlPic=

> <r_epik_Ionization_Penalty>
  2.2924

> <r_epik_Ionization_Penalty_Charging>
  1.0502

> <r_epik_Ionization_Penalty_Neutral>
  1.2423

> <r_epik_State_Penalty>
  2.4113

> <r_epik_Charging_Adjusted_Penalty>
3.46146

> <i_epik_Tot_Q>
1

> <i_epik_Tot_abs_Q>
1

> <s_lp_Force_Field>
OPLS3e

> <r_lp_Energy>
47.574

> <b_lp_Chiralities_Consistent>
1

> <s_lp_Variant>
/home/yujie/leadopt/data/result/selection/CDK9/lig_20.sdf:1-4

> <s_i_glide_gridfile>
glide-grid_CDK9

> <i_i_glide_lignum>
18

> <i_i_glide_rotatable_bonds>
6

> <r_i_docking_score>
-5.86315077533532

> <r_i_glide_ligand_efficiency>
-0.172445611039274

> <r_i_glide_ligand_efficiency_sa>
-0.558656835944664

> <r_i_glide_ligand_efficiency_ln>
-1.29533446208033

> <r_i_glide_gscore>
-8.27445077533532

> <r_i_glide_lipo>
-2.87989200743427

> <r_i_glide_hbond>
-0.537237877660216

> <r_i_glide_metal>
0

> <r_i_glide_rewards>
-1.75005476841515

> <r_i_glide_evdw>
-45.3225746154785

> <r_i_glide_ecoul>
-6.15505361557007

> <r_i_glide_erotb>
0.266719872827193

> <r_i_glide_esite>
-0.184599221543432

> <r_i_glide_emodel>
-53.2187555596387

> <r_i_glide_energy>
-51.4776282310486

> <r_i_glide_einternal>
2.31412672996521

> <i_i_glide_confnum>
60

> <i_i_glide_posenum>
388

> <r_i_glide_eff_state_penalty>
2.4113

> <s_m_job_name>
glide-dock_SP_all

> <r_glide_shape_similarity>
0.72790116071701

> <s_m_subgroup_title>
glide-dock_SP_all_lib1

> <s_m_subgroupid>
glide-dock_SP_all_lib1

> <b_m_subgroup_collapsed>
0

$$$$
