/home/yujie/leadopt/data/result/selection/CDK9/lig_4.sdf:1
                    3D
 Schrodinger Suite 2021-2.
 69 74  0  0  1  0            999 V2000
  -41.2378  -36.3794    0.0881 C   0  0  0  0  0  0
  -40.5908  -37.0420   -0.9958 O   0  0  0  0  0  0
  -40.2577  -36.3097   -2.1190 C   0  0  0  0  0  0
  -40.5153  -34.9279   -2.2266 C   0  0  0  0  0  0
  -40.2984  -34.2453   -3.4345 C   0  0  0  0  0  0
  -39.5938  -34.8897   -4.4757 C   0  0  0  0  0  0
  -39.2468  -36.2446   -4.3513 C   0  0  0  0  0  0
  -39.6399  -36.9745   -3.2086 C   0  0  0  0  0  0
  -39.3882  -38.4167   -3.1749 C   0  0  0  0  0  0
  -38.0708  -38.9137   -3.2978 C   0  0  0  0  0  0
  -37.8514  -40.3064   -3.2857 C   0  0  0  0  0  0
  -38.8337  -41.2261   -3.1795 N   0  0  0  0  0  0
  -40.0717  -40.7414   -3.0716 C   0  0  0  0  0  0
  -40.4187  -39.3695   -3.0541 C   0  0  0  0  0  0
  -41.7875  -39.3494   -2.9069 N   0  0  0  0  0  0
  -42.2049  -40.6591   -2.8217 C   0  0  0  0  0  0
  -41.1922  -41.5089   -2.9558 N   0  0  0  0  0  0
  -43.5559  -41.1276   -2.6255 C   0  0  0  0  0  0
  -44.2149  -40.9929   -1.3859 C   0  0  0  0  0  0
  -45.4801  -41.5887   -1.2072 C   0  0  0  0  0  0
  -46.0764  -42.2850   -2.2866 C   0  0  0  0  0  0
  -45.3813  -42.4858   -3.4892 C   0  0  0  0  0  0
  -44.1282  -41.8994   -3.6532 C   0  0  0  0  0  0
  -47.5402  -42.6343   -2.2882 C   0  0  0  0  0  0
  -48.1648  -41.7071   -3.2698 N   0  3  0  0  0  0
  -48.2733  -40.3092   -2.7576 C   0  0  0  0  0  0
  -48.8415  -39.3814   -3.8407 C   0  0  0  0  0  0
  -50.1050  -39.8998   -4.2559 O   0  0  0  0  0  0
  -49.9916  -41.1901   -4.8670 C   0  0  0  0  0  0
  -49.4511  -42.1949   -3.8297 C   0  0  0  0  0  0
  -40.7465  -32.8225   -3.5975 C   0  0  0  0  0  0
  -40.0280  -32.0784   -4.2542 O   0  0  0  0  0  0
  -41.9196  -32.3822   -3.0649 N   0  0  0  0  0  0
  -43.0853  -33.1212   -2.5434 C   0  0  0  0  0  0
  -43.7358  -32.1672   -1.5209 C   0  0  0  0  0  0
  -43.2598  -30.7527   -1.9259 C   0  0  0  0  0  0
  -42.2326  -30.9484   -3.0497 C   0  0  0  0  0  0
  -42.3754  -38.5254   -2.8457 H   0  0  0  0  0  0
  -41.4332  -37.0993    0.8836 H   0  0  0  0  0  0
  -40.6120  -35.5926    0.5110 H   0  0  0  0  0  0
  -42.1968  -35.9563   -0.2129 H   0  0  0  0  0  0
  -40.9315  -34.3753   -1.3994 H   0  0  0  0  0  0
  -39.3622  -34.3638   -5.3903 H   0  0  0  0  0  0
  -38.7447  -36.7417   -5.1688 H   0  0  0  0  0  0
  -37.2335  -38.2366   -3.3968 H   0  0  0  0  0  0
  -36.8489  -40.6994   -3.3758 H   0  0  0  0  0  0
  -43.7486  -40.4481   -0.5794 H   0  0  0  0  0  0
  -45.9989  -41.4542   -0.2639 H   0  0  0  0  0  0
  -45.8309  -43.0212   -4.3117 H   0  0  0  0  0  0
  -43.6251  -42.0238   -4.5932 H   0  0  0  0  0  0
  -47.6474  -43.6732   -2.6066 H   0  0  0  0  0  0
  -47.9817  -42.5329   -1.2934 H   0  0  0  0  0  0
  -48.9190  -40.2885   -1.8809 H   0  0  0  0  0  0
  -47.3053  -39.9299   -2.4410 H   0  0  0  0  0  0
  -48.1564  -39.3031   -4.6863 H   0  0  0  0  0  0
  -48.9777  -38.3751   -3.4451 H   0  0  0  0  0  0
  -49.3387  -41.1387   -5.7404 H   0  0  0  0  0  0
  -50.9738  -41.5015   -5.2233 H   0  0  0  0  0  0
  -49.3114  -43.1729   -4.2915 H   0  0  0  0  0  0
  -50.1728  -42.3207   -3.0208 H   0  0  0  0  0  0
  -42.8879  -34.0895   -2.0881 H   0  0  0  0  0  0
  -43.7675  -33.3034   -3.3776 H   0  0  0  0  0  0
  -43.3422  -32.3959   -0.5247 H   0  0  0  0  0  0
  -44.8227  -32.2908   -1.4650 H   0  0  0  0  0  0
  -44.0282  -30.0932   -2.2962 H   0  0  0  0  0  0
  -42.8293  -30.2417   -1.0663 H   0  0  0  0  0  0
  -42.6513  -30.6655   -4.0157 H   0  0  0  0  0  0
  -41.3533  -30.3289   -2.8685 H   0  0  0  0  0  0
  -47.5144  -41.6747   -4.0497 H   0  0  0  0  0  0
  1  2  1  0  0  0
  1 39  1  0  0  0
  1 40  1  0  0  0
  1 41  1  0  0  0
  2  3  1  0  0  0
  3  8  1  0  0  0
  3  4  2  0  0  0
  4  5  1  0  0  0
  4 42  1  0  0  0
  5  6  2  0  0  0
  5 31  1  0  0  0
  6  7  1  0  0  0
  6 43  1  0  0  0
  7  8  2  0  0  0
  7 44  1  0  0  0
  8  9  1  0  0  0
  9 14  1  0  0  0
  9 10  2  0  0  0
 10 11  1  0  0  0
 10 45  1  0  0  0
 11 12  2  0  0  0
 11 46  1  0  0  0
 12 13  1  0  0  0
 13 17  1  0  0  0
 13 14  2  0  0  0
 14 15  1  0  0  0
 15 38  1  0  0  0
 15 16  1  0  0  0
 16 17  2  0  0  0
 16 18  1  0  0  0
 18 23  1  0  0  0
 18 19  2  0  0  0
 19 20  1  0  0  0
 19 47  1  0  0  0
 20 21  2  0  0  0
 20 48  1  0  0  0
 21 22  1  0  0  0
 21 24  1  0  0  0
 22 23  2  0  0  0
 22 49  1  0  0  0
 23 50  1  0  0  0
 24 25  1  0  0  0
 24 51  1  0  0  0
 24 52  1  0  0  0
 25 30  1  0  0  0
 25 26  1  0  0  0
 25 69  1  0  0  0
 26 27  1  0  0  0
 26 53  1  0  0  0
 26 54  1  0  0  0
 27 28  1  0  0  0
 27 55  1  0  0  0
 27 56  1  0  0  0
 28 29  1  0  0  0
 29 30  1  0  0  0
 29 57  1  0  0  0
 29 58  1  0  0  0
 30 59  1  0  0  0
 30 60  1  0  0  0
 31 32  2  0  0  0
 31 33  1  0  0  0
 33 37  1  0  0  0
 33 34  1  0  0  0
 34 35  1  0  0  0
 34 61  1  0  0  0
 34 62  1  0  0  0
 35 36  1  0  0  0
 35 63  1  0  0  0
 35 64  1  0  0  0
 36 37  1  0  0  0
 36 65  1  0  0  0
 36 66  1  0  0  0
 37 67  1  0  0  0
 37 68  1  0  0  0
M  CHG  1  25   1
M  END
> <s_m_entry_id>
263

> <s_m_entry_name>
CDK9_lig_4.1

> <s_m_Source_Path>
C:\Users\yujiethinkpad\Desktop\selection\selection\CDK9_pose

> <s_m_Source_File>
CDK9_lig_4.sdf

> <i_m_Source_File_Index>
1

> <i_lp_mmshare_version>
51139

> <i_f3d_flags>
0

> <s_epik_input>
W0NIMl0xW0NIMl1bQ0gyXVtDSDJdTjFDKD1PKWMoW2NIXWMyT1tDSDNdKVtjSF1bY0hdYzItYyhbY0hdW2NIXW4zKWMoYzM0KVtuSF1jKG40KS1jNVtjSF1bY0hdYyhbY0hdW2NIXTUpW0NIMl1ONltDSDJdW0NIMl1PW0NIMl1bQ0gyXTY=

> <s_epik_cmdline>
J2VwaWtfcHl0aG9uJywgJy1waHQnLCAnMi4wJywgJy1waCcsICc3LjAnLCAnLXRuJywgJzgnLCAnLW1hJywgJzIwMCcsICctaW1hZScsICc8aW5maWxlLm1hZT4nLCAnLW9tYWUnLCAnPG91dGZpbGUubWFlPic=

> <r_epik_Ionization_Penalty>
  0.5833

> <r_epik_Ionization_Penalty_Charging>
  0.5711

> <r_epik_Ionization_Penalty_Neutral>
  0.0123

> <r_epik_State_Penalty>
  0.8371

> <r_epik_Charging_Adjusted_Penalty>
1.40814

> <i_epik_Tot_Q>
1

> <i_epik_Tot_abs_Q>
1

> <s_lp_Force_Field>
OPLS3e

> <r_lp_Energy>
63.5932

> <b_lp_Chiralities_Consistent>
1

> <s_lp_Variant>
/home/yujie/leadopt/data/result/selection/CDK9/lig_4.sdf:1-2

> <s_i_glide_gridfile>
glide-grid_CDK9

> <i_i_glide_lignum>
3

> <i_i_glide_rotatable_bonds>
7

> <r_i_docking_score>
-6.77964879075456

> <r_i_glide_ligand_efficiency>
-0.183233751101475

> <r_i_glide_ligand_efficiency_sa>
-0.610575508644477

> <r_i_glide_ligand_efficiency_ln>
-1.4703468851968

> <r_i_glide_gscore>
-7.61674879075456

> <r_i_glide_lipo>
-2.69666530300566

> <r_i_glide_hbond>
-0.601079403989653

> <r_i_glide_metal>
0

> <r_i_glide_rewards>
-1.0638044060516

> <r_i_glide_evdw>
-46.3936729431152

> <r_i_glide_ecoul>
-8.39335918426514

> <r_i_glide_erotb>
0.492532175239812

> <r_i_glide_esite>
-0.169044328151932

> <r_i_glide_emodel>
-50.228121707961

> <r_i_glide_energy>
-54.7870321273804

> <r_i_glide_einternal>
4.92344665527344

> <i_i_glide_confnum>
133

> <i_i_glide_posenum>
12

> <r_i_glide_eff_state_penalty>
0.8371

> <r_lp_tautomer_probability>
0.641916

> <s_m_job_name>
glide-dock_SP_all

> <r_glide_shape_similarity>
0.690272629261017

> <s_m_subgroup_title>
glide-dock_SP_all_lib1

> <s_m_subgroupid>
glide-dock_SP_all_lib1

> <b_m_subgroup_collapsed>
0

$$$$
