/home/yujie/leadopt/data/result/selection/CDK9/lig_22.sdf:1
                    3D
 Schrodinger Suite 2021-2.
 61 64  0  0  1  0            999 V2000
  -38.0997  -34.4171   -5.0428 C   0  0  0  0  0  0
  -39.1211  -34.9831   -4.1972 N   0  0  0  0  0  0
  -39.0545  -36.3690   -4.1144 C   0  0  0  0  0  0
  -39.6621  -37.0529   -3.1460 C   0  0  0  0  0  0
  -40.3973  -36.2910   -2.1416 C   0  0  0  0  0  0
  -40.5596  -34.9433   -2.3010 C   0  0  0  0  0  0
  -39.9521  -34.2206   -3.4280 C   0  0  0  0  0  0
  -40.1057  -33.0116   -3.6332 O   0  0  0  0  0  0
  -40.8280  -36.9918   -1.0343 O   0  0  0  0  0  0
  -41.3167  -36.2538    0.0817 C   0  0  0  0  0  0
  -39.4599  -38.5056   -3.1274 C   0  0  0  0  0  0
  -38.1452  -39.0135   -3.2747 C   0  0  0  0  0  0
  -37.9412  -40.4071   -3.2782 C   0  0  0  0  0  0
  -38.9326  -41.3206   -3.1792 N   0  0  0  0  0  0
  -40.1779  -40.7848   -3.0557 C   0  0  0  0  0  0
  -40.5466  -39.4089   -3.0060 C   0  0  0  0  0  0
  -41.9819  -39.3509   -2.8240 C   0  0  0  0  0  0
  -42.4032  -40.6536   -2.6586 C   0  0  0  0  0  0
  -41.3315  -41.4988   -2.8689 N   0  0  0  0  0  0
  -43.7022  -41.2639   -2.2345 C   0  0  1  0  0  0
  -44.8041  -40.2206   -1.9330 C   0  0  0  0  0  0
  -46.1863  -40.8763   -1.7202 C   0  0  0  0  0  0
  -46.4603  -41.7566   -2.8904 N   0  3  1  0  0  0
  -45.5234  -42.9039   -2.9146 C   0  0  0  0  0  0
  -44.1454  -42.3367   -3.2596 C   0  0  0  0  0  0
  -47.8758  -42.0901   -3.1608 C   0  0  0  0  0  0
  -48.1073  -42.0536   -4.6882 C   0  0  0  0  0  0
  -47.2929  -42.6483   -5.4028 O   0  0  0  0  0  0
  -49.1734  -41.3772   -5.2005 N   0  0  0  0  0  0
  -50.1744  -40.6732   -4.3774 C   0  0  0  0  0  0
  -49.4164  -41.2966   -6.6536 C   0  0  0  0  0  0
  -41.3949  -42.5094   -2.7651 H   0  0  0  0  0  0
  -37.8844  -35.1018   -5.8553 H   0  0  0  0  0  0
  -38.4277  -33.4986   -5.4555 H   0  0  0  0  0  0
  -37.1996  -34.2387   -4.4559 H   0  0  0  0  0  0
  -38.4508  -36.8506   -4.8712 H   0  0  0  0  0  0
  -41.0913  -34.3475   -1.5754 H   0  0  0  0  0  0
  -41.5215  -36.9409    0.9028 H   0  0  0  0  0  0
  -40.5796  -35.5285    0.4323 H   0  0  0  0  0  0
  -42.2512  -35.7389   -0.1509 H   0  0  0  0  0  0
  -37.2914  -38.3542   -3.3653 H   0  0  0  0  0  0
  -36.9399  -40.7967   -3.3810 H   0  0  0  0  0  0
  -42.5682  -38.4488   -2.7200 H   0  0  0  0  0  0
  -43.5279  -41.7906   -1.2956 H   0  0  0  0  0  0
  -44.8766  -39.5276   -2.7719 H   0  0  0  0  0  0
  -44.5376  -39.6204   -1.0606 H   0  0  0  0  0  0
  -46.9336  -40.0862   -1.6325 H   0  0  0  0  0  0
  -46.2199  -41.4497   -0.7902 H   0  0  0  0  0  0
  -45.5169  -43.4136   -1.9500 H   0  0  0  0  0  0
  -45.8051  -43.6516   -3.6545 H   0  0  0  0  0  0
  -43.4230  -43.1509   -3.2915 H   0  0  0  0  0  0
  -44.1662  -41.9035   -4.2608 H   0  0  0  0  0  0
  -48.5064  -41.3748   -2.6383 H   0  0  0  0  0  0
  -48.1233  -43.0760   -2.7635 H   0  0  0  0  0  0
  -49.7341  -39.7833   -3.9087 H   0  0  0  0  0  0
  -50.5679  -41.3282   -3.5955 H   0  0  0  0  0  0
  -51.0410  -40.3491   -4.9666 H   0  0  0  0  0  0
  -48.8354  -42.0171   -7.2280 H   0  0  0  0  0  0
  -50.4650  -41.4918   -6.8800 H   0  0  0  0  0  0
  -49.1765  -40.3021   -7.0276 H   0  0  0  0  0  0
  -46.2097  -41.2022   -3.7030 H   0  0  0  0  0  0
  1  2  1  0  0  0
  1 33  1  0  0  0
  1 34  1  0  0  0
  1 35  1  0  0  0
  2  7  1  0  0  0
  2  3  1  0  0  0
  3  4  2  0  0  0
  3 36  1  0  0  0
  4  5  1  0  0  0
  4 11  1  0  0  0
  5  6  2  0  0  0
  5  9  1  0  0  0
  6  7  1  0  0  0
  6 37  1  0  0  0
  7  8  2  0  0  0
  9 10  1  0  0  0
 10 38  1  0  0  0
 10 39  1  0  0  0
 10 40  1  0  0  0
 11 16  1  0  0  0
 11 12  2  0  0  0
 12 13  1  0  0  0
 12 41  1  0  0  0
 13 14  2  0  0  0
 13 42  1  0  0  0
 14 15  1  0  0  0
 15 19  1  0  0  0
 15 16  2  0  0  0
 16 17  1  0  0  0
 17 18  2  0  0  0
 17 43  1  0  0  0
 18 19  1  0  0  0
 18 20  1  0  0  0
 19 32  1  0  0  0
 20 25  1  0  0  0
 20 21  1  0  0  0
 20 44  1  0  0  0
 21 22  1  0  0  0
 21 45  1  0  0  0
 21 46  1  0  0  0
 22 23  1  0  0  0
 22 47  1  0  0  0
 22 48  1  0  0  0
 23 24  1  0  0  0
 23 26  1  0  0  0
 23 61  1  0  0  0
 24 25  1  0  0  0
 24 49  1  0  0  0
 24 50  1  0  0  0
 25 51  1  0  0  0
 25 52  1  0  0  0
 26 27  1  0  0  0
 26 53  1  0  0  0
 26 54  1  0  0  0
 27 28  2  0  0  0
 27 29  1  0  0  0
 29 30  1  0  0  0
 29 31  1  0  0  0
 30 55  1  0  0  0
 30 56  1  0  0  0
 30 57  1  0  0  0
 31 58  1  0  0  0
 31 59  1  0  0  0
 31 60  1  0  0  0
M  CHG  1  23   1
M  END
> <s_m_entry_id>
248

> <s_m_entry_name>
CDK9_lig_22.1

> <s_m_Source_Path>
C:\Users\yujiethinkpad\Desktop\selection\selection\CDK9_pose

> <s_m_Source_File>
CDK9_lig_22.sdf

> <i_m_Source_File_Index>
1

> <i_lp_mmshare_version>
51139

> <i_f3d_flags>
0

> <s_epik_input>
Tz1jMVtjSF1jKE9bQ0gzXSljKFtjSF1uMVtDSDNdKS1jKFtjSF1bY0hdbjIpYyhjMjMpW2NIXWMoW25IXTMpW0NIXTRbQ0gyXVtDSDJdTihbQ0gyXVtDSDJdNClbQ0gyXUMoPU8pTihbQ0gzXSlbQ0gzXQ==

> <s_epik_cmdline>
J2VwaWtfcHl0aG9uJywgJy1waHQnLCAnMi4wJywgJy1waCcsICc3LjAnLCAnLXRuJywgJzgnLCAnLW1hJywgJzIwMCcsICctaW1hZScsICc8aW5maWxlLm1hZT4nLCAnLW9tYWUnLCAnPG91dGZpbGUubWFlPic=

> <r_epik_Ionization_Penalty>
  0.0792

> <r_epik_Ionization_Penalty_Charging>
  0.0781

> <r_epik_Ionization_Penalty_Neutral>
  0.0011

> <r_epik_State_Penalty>
  0.0690

> <r_epik_Charging_Adjusted_Penalty>
0.147046

> <i_epik_Tot_Q>
1

> <i_epik_Tot_abs_Q>
1

> <s_lp_Force_Field>
OPLS3e

> <r_lp_Energy>
58.7439

> <b_lp_Chiralities_Consistent>
1

> <s_lp_Variant>
/home/yujie/leadopt/data/result/selection/CDK9/lig_22.sdf:1-1

> <s_i_glide_gridfile>
glide-grid_CDK9

> <i_i_glide_lignum>
20

> <i_i_glide_rotatable_bonds>
6

> <r_i_docking_score>
-8.70158252144142

> <r_i_glide_ligand_efficiency>
-0.280696210369078

> <r_i_glide_ligand_efficiency_sa>
-0.881773643443673

> <r_i_glide_ligand_efficiency_ln>
-1.96247353006329

> <r_i_glide_gscore>
-8.77058252144142

> <r_i_glide_lipo>
-2.69021921916552

> <r_i_glide_hbond>
-0.556920975385697

> <r_i_glide_metal>
0

> <r_i_glide_rewards>
-2.27997275984584

> <r_i_glide_evdw>
-43.0835456848145

> <r_i_glide_ecoul>
-9.24557685852051

> <r_i_glide_erotb>
0.308085537520521

> <r_i_glide_esite>
-0.0105412915460881

> <r_i_glide_emodel>
-67.0157899874139

> <r_i_glide_energy>
-52.329122543335

> <r_i_glide_einternal>
3.32393646240234

> <i_i_glide_confnum>
15

> <i_i_glide_posenum>
7

> <r_i_glide_eff_state_penalty>
0.069

> <r_lp_tautomer_probability>
0.999998

> <s_m_job_name>
glide-dock_SP_all

> <r_glide_shape_similarity>
0.849689126014709

> <s_m_subgroup_title>
glide-dock_SP_all_lib1

> <s_m_subgroupid>
glide-dock_SP_all_lib1

> <b_m_subgroup_collapsed>
0

$$$$
