/home/yujie/leadopt/data/result/selection/CDK9/lig_9.sdf:1
                    3D
 Schrodinger Suite 2021-2.
 59 63  0  0  1  0            999 V2000
  -41.2210  -36.4082    0.0688 C   0  0  0  0  0  0
  -40.5362  -37.0993   -0.9808 O   0  0  0  0  0  0
  -40.1609  -36.3888   -2.1090 C   0  0  0  0  0  0
  -40.3503  -35.0024   -2.2139 C   0  0  0  0  0  0
  -40.1424  -34.3195   -3.4230 C   0  0  0  0  0  0
  -39.4681  -34.9733   -4.4763 C   0  0  0  0  0  0
  -39.1671  -36.3404   -4.3534 C   0  0  0  0  0  0
  -39.5736  -37.0653   -3.2067 C   0  0  0  0  0  0
  -39.3895  -38.5193   -3.1780 C   0  0  0  0  0  0
  -38.0975  -39.0799   -3.2693 C   0  0  0  0  0  0
  -37.9479  -40.4814   -3.2318 C   0  0  0  0  0  0
  -38.9714  -41.3619   -3.1221 N   0  0  0  0  0  0
  -40.2057  -40.7867   -3.0561 C   0  0  0  0  0  0
  -40.5024  -39.3931   -3.0812 C   0  0  0  0  0  0
  -41.9309  -39.2508   -3.0044 C   0  0  0  0  0  0
  -42.4527  -40.5184   -2.9049 C   0  0  0  0  0  0
  -41.4149  -41.4440   -2.9296 N   0  0  0  0  0  0
  -43.8859  -40.8996   -2.7258 C   0  0  0  0  0  0
  -44.3456  -42.0885   -3.6001 C   0  0  0  0  0  0
  -45.8559  -42.3289   -3.4161 C   0  0  0  0  0  0
  -46.1351  -42.6289   -1.9920 N   0  3  0  0  0  0
  -45.7015  -41.5577   -1.0564 C   0  0  0  0  0  0
  -44.2158  -41.1950   -1.2515 C   0  0  0  0  0  0
  -40.6420  -32.9153   -3.6074 C   0  0  0  0  0  0
  -40.0280  -32.1804   -4.3672 O   0  0  0  0  0  0
  -41.8111  -32.5080   -3.0554 N   0  0  0  0  0  0
  -42.2950  -31.1377   -3.2929 C   0  0  0  0  0  0
  -43.3504  -30.8942   -2.2194 C   0  0  0  0  0  0
  -43.9250  -32.3033   -1.9260 C   0  0  0  0  0  0
  -42.6907  -33.1842   -2.0714 C   0  0  0  0  0  0
  -41.5461  -42.4473   -2.8177 H   0  0  0  0  0  0
  -41.4946  -37.1105    0.8561 H   0  0  0  0  0  0
  -40.5854  -35.6518    0.5289 H   0  0  0  0  0  0
  -42.1410  -35.9408   -0.2902 H   0  0  0  0  0  0
  -40.7155  -34.4662   -1.3671 H   0  0  0  0  0  0
  -39.2478  -34.4583   -5.3998 H   0  0  0  0  0  0
  -38.7006  -36.8545   -5.1791 H   0  0  0  0  0  0
  -37.2276  -38.4467   -3.3555 H   0  0  0  0  0  0
  -36.9600  -40.9133   -3.2893 H   0  0  0  0  0  0
  -42.4713  -38.3153   -2.9980 H   0  0  0  0  0  0
  -44.4845  -40.0368   -3.0213 H   0  0  0  0  0  0
  -44.1356  -41.9016   -4.6522 H   0  0  0  0  0  0
  -43.7884  -42.9901   -3.3375 H   0  0  0  0  0  0
  -46.4289  -41.4542   -3.7292 H   0  0  0  0  0  0
  -46.1864  -43.1648   -4.0345 H   0  0  0  0  0  0
  -47.1338  -42.7674   -1.8769 H   0  0  0  0  0  0
  -46.3298  -40.6766   -1.1949 H   0  0  0  0  0  0
  -45.8550  -41.9132   -0.0394 H   0  0  0  0  0  0
  -43.5933  -42.0151   -0.8912 H   0  0  0  0  0  0
  -43.9664  -40.3284   -0.6404 H   0  0  0  0  0  0
  -42.7375  -31.0812   -4.2875 H   0  0  0  0  0  0
  -41.4975  -30.3944   -3.2189 H   0  0  0  0  0  0
  -44.0277  -30.1148   -2.5433 H   0  0  0  0  0  0
  -42.8629  -30.5089   -1.3241 H   0  0  0  0  0  0
  -44.3879  -32.3757   -0.9420 H   0  0  0  0  0  0
  -44.6270  -32.6948   -2.6646 H   0  0  0  0  0  0
  -42.2230  -33.1842   -1.0880 H   0  0  0  0  0  0
  -42.9517  -34.2042   -2.3592 H   0  0  0  0  0  0
  -45.6499  -43.4878   -1.7440 H   0  0  0  0  0  0
  1  2  1  0  0  0
  1 32  1  0  0  0
  1 33  1  0  0  0
  1 34  1  0  0  0
  2  3  1  0  0  0
  3  8  1  0  0  0
  3  4  2  0  0  0
  4  5  1  0  0  0
  4 35  1  0  0  0
  5  6  2  0  0  0
  5 24  1  0  0  0
  6  7  1  0  0  0
  6 36  1  0  0  0
  7  8  2  0  0  0
  7 37  1  0  0  0
  8  9  1  0  0  0
  9 14  1  0  0  0
  9 10  2  0  0  0
 10 11  1  0  0  0
 10 38  1  0  0  0
 11 12  2  0  0  0
 11 39  1  0  0  0
 12 13  1  0  0  0
 13 17  1  0  0  0
 13 14  2  0  0  0
 14 15  1  0  0  0
 15 16  2  0  0  0
 15 40  1  0  0  0
 16 17  1  0  0  0
 16 18  1  0  0  0
 17 31  1  0  0  0
 18 23  1  0  0  0
 18 19  1  0  0  0
 18 41  1  0  0  0
 19 20  1  0  0  0
 19 42  1  0  0  0
 19 43  1  0  0  0
 20 21  1  0  0  0
 20 44  1  0  0  0
 20 45  1  0  0  0
 21 22  1  0  0  0
 21 46  1  0  0  0
 21 59  1  0  0  0
 22 23  1  0  0  0
 22 47  1  0  0  0
 22 48  1  0  0  0
 23 49  1  0  0  0
 23 50  1  0  0  0
 24 25  2  0  0  0
 24 26  1  0  0  0
 26 30  1  0  0  0
 26 27  1  0  0  0
 27 28  1  0  0  0
 27 51  1  0  0  0
 27 52  1  0  0  0
 28 29  1  0  0  0
 28 53  1  0  0  0
 28 54  1  0  0  0
 29 30  1  0  0  0
 29 55  1  0  0  0
 29 56  1  0  0  0
 30 57  1  0  0  0
 30 58  1  0  0  0
M  CHG  1  21   1
M  END
> <s_m_entry_id>
230

> <s_m_entry_name>
CDK9_lig_9.1

> <s_m_Source_Path>
C:\Users\yujiethinkpad\Desktop\selection\selection\CDK9_pose

> <s_m_Source_File>
CDK9_lig_9.sdf

> <i_m_Source_File_Index>
1

> <i_lp_mmshare_version>
51139

> <i_f3d_flags>
0

> <s_epik_input>
W0NIMl0xW0NIMl1bQ0gyXVtDSDJdTjFDKD1PKWMoW2NIXWMyT1tDSDNdKVtjSF1bY0hdYzItYyhbY0hdW2NIXW4zKWMoYzM0KVtjSF1jKFtuSF00KVtDSF01W0NIMl1bQ0gyXVtOSF1bQ0gyXVtDSDJdNQ==

> <s_epik_cmdline>
J2VwaWtfcHl0aG9uJywgJy1waHQnLCAnMi4wJywgJy1waCcsICc3LjAnLCAnLXRuJywgJzgnLCAnLW1hJywgJzIwMCcsICctaW1hZScsICc8aW5maWxlLm1hZT4nLCAnLW9tYWUnLCAnPG91dGZpbGUubWFlPic=

> <r_epik_Ionization_Penalty>
  0.0029

> <r_epik_Ionization_Penalty_Charging>
  0.0006

> <r_epik_Ionization_Penalty_Neutral>
  0.0023

> <r_epik_State_Penalty>
  0.0000

> <r_epik_Charging_Adjusted_Penalty>
0.000597526

> <i_epik_Tot_Q>
1

> <i_epik_Tot_abs_Q>
1

> <s_lp_Force_Field>
OPLS3e

> <r_lp_Energy>
53.324

> <b_lp_Chiralities_Consistent>
1

> <s_lp_Variant>
/home/yujie/leadopt/data/result/selection/CDK9/lig_9.sdf:1-1

> <s_i_glide_gridfile>
glide-grid_CDK9

> <i_i_glide_lignum>
7

> <i_i_glide_rotatable_bonds>
5

> <r_i_docking_score>
-9.70934437179907

> <r_i_glide_ligand_efficiency>
-0.323644812393303

> <r_i_glide_ligand_efficiency_sa>
-1.00563968031168

> <r_i_glide_ligand_efficiency_ln>
-2.20606883305294

> <r_i_glide_gscore>
-9.70934437179907

> <r_i_glide_lipo>
-2.9989442971269

> <r_i_glide_hbond>
-0.702823682730636

> <r_i_glide_metal>
0

> <r_i_glide_rewards>
-2.1201321366212

> <r_i_glide_evdw>
-38.8800888061523

> <r_i_glide_ecoul>
-14.1074056625366

> <r_i_glide_erotb>
0.334647559309027

> <r_i_glide_esite>
-0.161976524941255

> <r_i_glide_emodel>
-62.632209225824

> <r_i_glide_energy>
-52.987494468689

> <r_i_glide_einternal>
2.53860569000244

> <i_i_glide_confnum>
75

> <i_i_glide_posenum>
291

> <r_i_glide_eff_state_penalty>
0

> <r_lp_tautomer_probability>
1

> <s_m_job_name>
glide-dock_SP_all

> <r_glide_shape_similarity>
0.772730588912964

> <s_m_subgroup_title>
glide-dock_SP_all_lib1

> <s_m_subgroupid>
glide-dock_SP_all_lib1

> <b_m_subgroup_collapsed>
0

$$$$
