/home/yujie/leadopt/data/result/selection/CDK9/lig_13.sdf:1
                    3D
 Schrodinger Suite 2021-2.
 49 52  0  0  1  0            999 V2000
  -48.2895  -40.9803   -4.6560 C   0  0  0  0  0  0
  -47.2510  -42.0542   -4.3668 C   0  0  0  0  0  0
  -47.1587  -42.9951   -5.1513 O   0  0  0  0  0  0
  -46.4795  -41.9514   -3.2636 N   0  0  0  0  0  0
  -46.3342  -40.7801   -2.4054 C   0  0  0  0  0  0
  -44.9554  -40.1312   -2.6543 C   0  0  0  0  0  0
  -43.8040  -41.1259   -2.4723 C   0  0  0  0  0  0
  -44.1117  -42.4024   -3.2628 C   0  0  0  0  0  0
  -45.4897  -42.9550   -2.9090 C   0  0  0  0  0  0
  -42.4456  -40.5744   -2.7857 C   0  0  0  0  0  0
  -41.9819  -39.2898   -2.9314 C   0  0  0  0  0  0
  -40.5503  -39.3613   -3.0554 C   0  0  0  0  0  0
  -39.4642  -38.4542   -3.1665 C   0  0  0  0  0  0
  -38.1703  -38.9989   -3.2712 C   0  0  0  0  0  0
  -37.9921  -40.3908   -3.2587 C   0  0  0  0  0  0
  -38.9861  -41.2881   -3.1550 N   0  0  0  0  0  0
  -40.2145  -40.7368   -3.0558 C   0  0  0  0  0  0
  -41.3779  -41.4319   -2.8968 N   0  0  0  0  0  0
  -39.6472  -36.9918   -3.2162 C   0  0  0  0  0  0
  -39.1440  -36.2898   -4.3258 C   0  0  0  0  0  0
  -39.3121  -34.9072   -4.4467 C   0  0  0  0  0  0
  -39.9929  -34.2038   -3.4551 C   0  0  0  0  0  0
  -40.4829  -34.8780   -2.3319 C   0  0  0  0  0  0
  -40.3000  -36.2715   -2.1913 C   0  0  0  0  0  0
  -40.7222  -36.9790   -1.0887 O   0  0  0  0  0  0
  -41.2502  -36.2725    0.0224 C   0  0  0  0  0  0
  -40.1687  -32.8727   -3.5859 F   0  0  0  0  0  0
  -41.4658  -42.4338   -2.7865 H   0  0  0  0  0  0
  -47.8088  -40.0181   -4.8335 H   0  0  0  0  0  0
  -48.9787  -40.8838   -3.8155 H   0  0  0  0  0  0
  -48.8712  -41.2309   -5.5431 H   0  0  0  0  0  0
  -47.1202  -40.0426   -2.5576 H   0  0  0  0  0  0
  -46.4228  -41.0813   -1.3602 H   0  0  0  0  0  0
  -44.9289  -39.7290   -3.6680 H   0  0  0  0  0  0
  -44.8248  -39.2814   -1.9834 H   0  0  0  0  0  0
  -43.7941  -41.3971   -1.4166 H   0  0  0  0  0  0
  -43.3678  -43.1680   -3.0642 H   0  0  0  0  0  0
  -44.0566  -42.1997   -4.3318 H   0  0  0  0  0  0
  -45.5468  -43.1869   -1.8431 H   0  0  0  0  0  0
  -45.6529  -43.9056   -3.4175 H   0  0  0  0  0  0
  -42.5619  -38.3796   -2.8853 H   0  0  0  0  0  0
  -37.3103  -38.3507   -3.3626 H   0  0  0  0  0  0
  -36.9959  -40.8002   -3.3380 H   0  0  0  0  0  0
  -38.6304  -36.8256   -5.1110 H   0  0  0  0  0  0
  -38.9293  -34.3887   -5.3120 H   0  0  0  0  0  0
  -40.9914  -34.2927   -1.5798 H   0  0  0  0  0  0
  -41.4650  -36.9766    0.8266 H   0  0  0  0  0  0
  -40.5387  -35.5411    0.4088 H   0  0  0  0  0  0
  -42.1843  -35.7695   -0.2309 H   0  0  0  0  0  0
  1  2  1  0  0  0
  1 29  1  0  0  0
  1 30  1  0  0  0
  1 31  1  0  0  0
  2  3  2  0  0  0
  2  4  1  0  0  0
  4  9  1  0  0  0
  4  5  1  0  0  0
  5  6  1  0  0  0
  5 32  1  0  0  0
  5 33  1  0  0  0
  6  7  1  0  0  0
  6 34  1  0  0  0
  6 35  1  0  0  0
  7  8  1  0  0  0
  7 10  1  0  0  0
  7 36  1  0  0  0
  8  9  1  0  0  0
  8 37  1  0  0  0
  8 38  1  0  0  0
  9 39  1  0  0  0
  9 40  1  0  0  0
 10 18  1  0  0  0
 10 11  2  0  0  0
 11 12  1  0  0  0
 11 41  1  0  0  0
 12 17  2  0  0  0
 12 13  1  0  0  0
 13 14  2  0  0  0
 13 19  1  0  0  0
 14 15  1  0  0  0
 14 42  1  0  0  0
 15 16  2  0  0  0
 15 43  1  0  0  0
 16 17  1  0  0  0
 17 18  1  0  0  0
 18 28  1  0  0  0
 19 24  1  0  0  0
 19 20  2  0  0  0
 20 21  1  0  0  0
 20 44  1  0  0  0
 21 22  2  0  0  0
 21 45  1  0  0  0
 22 23  1  0  0  0
 22 27  1  0  0  0
 23 24  2  0  0  0
 23 46  1  0  0  0
 24 25  1  0  0  0
 25 26  1  0  0  0
 26 47  1  0  0  0
 26 48  1  0  0  0
 26 49  1  0  0  0
M  END
> <s_m_entry_id>
237

> <s_m_entry_name>
CDK9_lig_13.1

> <s_m_Source_Path>
C:\Users\yujiethinkpad\Desktop\selection\selection\CDK9_pose

> <s_m_Source_File>
CDK9_lig_13.sdf

> <i_m_Source_File_Index>
1

> <i_lp_mmshare_version>
51139

> <i_f3d_flags>
0

> <s_epik_input>
W0NIM11DKD1PKU4xW0NIMl1bQ0gyXVtDSF0oW0NIMl1bQ0gyXTEpYyhbY0hdMilbbkhdYyhjMjMpbltjSF1bY0hdYzMtYzRbY0hdW2NIXWMoRilbY0hdYzRPW0NIM10=

> <s_epik_cmdline>
J2VwaWtfcHl0aG9uJywgJy1waHQnLCAnMi4wJywgJy1waCcsICc3LjAnLCAnLXRuJywgJzgnLCAnLW1hJywgJzIwMCcsICctaW1hZScsICc8aW5maWxlLm1hZT4nLCAnLW9tYWUnLCAnPG91dGZpbGUubWFlPic=

> <r_epik_Ionization_Penalty>
  0.0022

> <r_epik_Ionization_Penalty_Charging>
  0.0000

> <r_epik_Ionization_Penalty_Neutral>
  0.0022

> <r_epik_State_Penalty>
  0.0015

> <r_epik_Charging_Adjusted_Penalty>
0.00152624

> <i_epik_Tot_Q>
0

> <i_epik_Tot_abs_Q>
0

> <s_lp_Force_Field>
OPLS3e

> <r_lp_Energy>
34.2975

> <b_lp_Chiralities_Consistent>
1

> <s_lp_Variant>
/home/yujie/leadopt/data/result/selection/CDK9/lig_13.sdf:1-1

> <s_i_glide_gridfile>
glide-grid_CDK9

> <i_i_glide_lignum>
11

> <i_i_glide_rotatable_bonds>
4

> <r_i_docking_score>
-9.09312328049738

> <r_i_glide_ligand_efficiency>
-0.336782343722125

> <r_i_glide_ligand_efficiency_sa>
-1.0103470300564

> <r_i_glide_ligand_efficiency_ln>
-2.11672918784626

> <r_i_glide_gscore>
-9.09462328049738

> <r_i_glide_lipo>
-2.97549160862189

> <r_i_glide_hbond>
-0.497878934561549

> <r_i_glide_metal>
0

> <r_i_glide_rewards>
-2.40782788575613

> <r_i_glide_evdw>
-42.909423828125

> <r_i_glide_ecoul>
-7.8116307258606

> <r_i_glide_erotb>
0.199724360297713

> <r_i_glide_esite>
-0.0959334115701876

> <r_i_glide_emodel>
-74.2708575706884

> <r_i_glide_energy>
-50.7210545539856

> <r_i_glide_einternal>
0.629607439041138

> <i_i_glide_confnum>
6

> <i_i_glide_posenum>
185

> <r_i_glide_eff_state_penalty>
0.0015

> <r_lp_tautomer_probability>
0.999998

> <s_m_job_name>
glide-dock_SP_all

> <r_glide_shape_similarity>
0.95002955198288

> <s_m_subgroup_title>
glide-dock_SP_all_lib1

> <s_m_subgroupid>
glide-dock_SP_all_lib1

> <b_m_subgroup_collapsed>
0

$$$$
