/home/yujie/leadopt/data/result/selection/CDK9/lig_12.sdf:1
                    3D
 Schrodinger Suite 2021-2.
 57 61  0  0  1  0            999 V2000
  -41.2141  -36.4348    0.0891 C   0  0  0  0  0  0
  -40.4931  -37.0996   -0.9499 O   0  0  0  0  0  0
  -40.1756  -36.3996   -2.0941 C   0  0  0  0  0  0
  -40.3906  -35.0209   -2.1895 C   0  0  0  0  0  0
  -40.1846  -34.3329   -3.3996 C   0  0  0  0  0  0
  -39.5137  -34.9754   -4.4637 C   0  0  0  0  0  0
  -39.2166  -36.3445   -4.3544 C   0  0  0  0  0  0
  -39.6242  -37.0705   -3.2071 C   0  0  0  0  0  0
  -39.4443  -38.5207   -3.1737 C   0  0  0  0  0  0
  -38.1407  -39.0469   -3.2808 C   0  0  0  0  0  0
  -37.9556  -40.4427   -3.2551 C   0  0  0  0  0  0
  -38.9560  -41.3433   -3.1409 N   0  0  0  0  0  0
  -40.2033  -40.7980   -3.0577 C   0  0  0  0  0  0
  -40.5501  -39.4113   -3.0624 C   0  0  0  0  0  0
  -42.0032  -39.3432   -2.9589 C   0  0  0  0  0  0
  -42.4704  -40.6430   -2.9010 C   0  0  0  0  0  0
  -41.3814  -41.4987   -2.9223 N   0  0  0  0  0  0
  -43.8507  -41.2576   -2.8455 C   0  0  0  0  0  0
  -44.2337  -41.8466   -1.4764 C   0  0  0  0  0  0
  -45.5486  -42.6457   -1.6114 C   0  0  0  0  0  0
  -46.6058  -41.8512   -2.1662 O   0  0  0  0  0  0
  -46.3078  -41.2812   -3.4422 C   0  0  0  0  0  0
  -45.0394  -40.3921   -3.3087 C   0  0  0  0  0  0
  -40.6784  -32.9242   -3.5593 C   0  0  0  0  0  0
  -40.0279  -32.1770   -4.2649 O   0  0  0  0  0  0
  -41.8783  -32.5335   -3.0562 N   0  0  0  0  0  0
  -42.3600  -31.1630   -3.2951 C   0  0  0  0  0  0
  -43.3675  -30.9024   -2.1826 C   0  0  0  0  0  0
  -43.9567  -32.3006   -1.8605 C   0  0  0  0  0  0
  -42.7342  -33.1996   -2.0479 C   0  0  0  0  0  0
  -41.4604  -42.5159   -2.8463 H   0  0  0  0  0  0
  -41.4487  -37.1517    0.8814 H   0  0  0  0  0  0
  -40.6071  -35.6540    0.5442 H   0  0  0  0  0  0
  -42.1613  -36.0213   -0.2618 H   0  0  0  0  0  0
  -40.7510  -34.4903   -1.3309 H   0  0  0  0  0  0
  -39.3039  -34.4569   -5.3848 H   0  0  0  0  0  0
  -38.7550  -36.8618   -5.1882 H   0  0  0  0  0  0
  -37.2856  -38.3931   -3.3750 H   0  0  0  0  0  0
  -36.9555  -40.8498   -3.3262 H   0  0  0  0  0  0
  -42.5840  -38.4349   -2.9570 H   0  0  0  0  0  0
  -43.8019  -42.0987   -3.5415 H   0  0  0  0  0  0
  -43.4455  -42.5091   -1.1180 H   0  0  0  0  0  0
  -44.3455  -41.0584   -0.7358 H   0  0  0  0  0  0
  -45.3931  -43.5149   -2.2566 H   0  0  0  0  0  0
  -45.8643  -43.0244   -0.6455 H   0  0  0  0  0  0
  -46.1641  -42.0670   -4.1866 H   0  0  0  0  0  0
  -47.1559  -40.6782   -3.7715 H   0  0  0  0  0  0
  -45.2095  -39.5863   -2.5974 H   0  0  0  0  0  0
  -44.8279  -39.9131   -4.2548 H   0  0  0  0  0  0
  -42.8342  -31.1113   -4.2720 H   0  0  0  0  0  0
  -41.5645  -30.4138   -3.2554 H   0  0  0  0  0  0
  -44.0289  -30.0988   -2.4683 H   0  0  0  0  0  0
  -42.8414  -30.5315   -1.3011 H   0  0  0  0  0  0
  -44.3858  -32.3624   -0.8555 H   0  0  0  0  0  0
  -44.6836  -32.6971   -2.5692 H   0  0  0  0  0  0
  -42.2364  -33.1898   -1.0729 H   0  0  0  0  0  0
  -43.0054  -34.2157   -2.3189 H   0  0  0  0  0  0
  1  2  1  0  0  0
  1 32  1  0  0  0
  1 33  1  0  0  0
  1 34  1  0  0  0
  2  3  1  0  0  0
  3  8  1  0  0  0
  3  4  2  0  0  0
  4  5  1  0  0  0
  4 35  1  0  0  0
  5  6  2  0  0  0
  5 24  1  0  0  0
  6  7  1  0  0  0
  6 36  1  0  0  0
  7  8  2  0  0  0
  7 37  1  0  0  0
  8  9  1  0  0  0
  9 14  1  0  0  0
  9 10  2  0  0  0
 10 11  1  0  0  0
 10 38  1  0  0  0
 11 12  2  0  0  0
 11 39  1  0  0  0
 12 13  1  0  0  0
 13 17  1  0  0  0
 13 14  2  0  0  0
 14 15  1  0  0  0
 15 16  2  0  0  0
 15 40  1  0  0  0
 16 17  1  0  0  0
 16 18  1  0  0  0
 17 31  1  0  0  0
 18 23  1  0  0  0
 18 19  1  0  0  0
 18 41  1  0  0  0
 19 20  1  0  0  0
 19 42  1  0  0  0
 19 43  1  0  0  0
 20 21  1  0  0  0
 20 44  1  0  0  0
 20 45  1  0  0  0
 21 22  1  0  0  0
 22 23  1  0  0  0
 22 46  1  0  0  0
 22 47  1  0  0  0
 23 48  1  0  0  0
 23 49  1  0  0  0
 24 25  2  0  0  0
 24 26  1  0  0  0
 26 30  1  0  0  0
 26 27  1  0  0  0
 27 28  1  0  0  0
 27 50  1  0  0  0
 27 51  1  0  0  0
 28 29  1  0  0  0
 28 52  1  0  0  0
 28 53  1  0  0  0
 29 30  1  0  0  0
 29 54  1  0  0  0
 29 55  1  0  0  0
 30 56  1  0  0  0
 30 57  1  0  0  0
M  END
> <s_m_entry_id>
231

> <s_m_entry_name>
CDK9_lig_12.1

> <s_m_Source_Path>
C:\Users\yujiethinkpad\Desktop\selection\selection\CDK9_pose

> <s_m_Source_File>
CDK9_lig_12.sdf

> <i_m_Source_File_Index>
1

> <i_lp_mmshare_version>
51139

> <i_f3d_flags>
0

> <s_epik_input>
W0NIMl0xW0NIMl1bQ0gyXVtDSDJdTjFDKD1PKWMoW2NIXWMyT1tDSDNdKVtjSF1bY0hdYzItYyhbY0hdW2NIXW4zKWMoYzM0KVtjSF1jKFtuSF00KVtDSF01W0NIMl1bQ0gyXU9bQ0gyXVtDSDJdNQ==

> <s_epik_cmdline>
J2VwaWtfcHl0aG9uJywgJy1waHQnLCAnMi4wJywgJy1waCcsICc3LjAnLCAnLXRuJywgJzgnLCAnLW1hJywgJzIwMCcsICctaW1hZScsICc8aW5maWxlLm1hZT4nLCAnLW9tYWUnLCAnPG91dGZpbGUubWFlPic=

> <r_epik_Ionization_Penalty>
  0.0034

> <r_epik_Ionization_Penalty_Charging>
  0.0000

> <r_epik_Ionization_Penalty_Neutral>
  0.0034

> <r_epik_State_Penalty>
  0.0024

> <r_epik_Charging_Adjusted_Penalty>
0.00237637

> <i_epik_Tot_Q>
0

> <i_epik_Tot_abs_Q>
0

> <s_lp_Force_Field>
OPLS3e

> <r_lp_Energy>
46.4622

> <b_lp_Chiralities_Consistent>
1

> <s_lp_Variant>
/home/yujie/leadopt/data/result/selection/CDK9/lig_12.sdf:1-1

> <s_i_glide_gridfile>
glide-grid_CDK9

> <i_i_glide_lignum>
10

> <i_i_glide_rotatable_bonds>
5

> <r_i_docking_score>
-9.65625391611544

> <r_i_glide_ligand_efficiency>
-0.321875130537181

> <r_i_glide_ligand_efficiency_sa>
-1.00014086732938

> <r_i_glide_ligand_efficiency_ln>
-2.19400610305477

> <r_i_glide_gscore>
-9.65865391611544

> <r_i_glide_lipo>
-3.27748062793188

> <r_i_glide_hbond>
-0.687611250836588

> <r_i_glide_metal>
0

> <r_i_glide_rewards>
-2.10301306651438

> <r_i_glide_evdw>
-40.4622840881348

> <r_i_glide_ecoul>
-11.6139316558838

> <r_i_glide_erotb>
0.334682036254152

> <r_i_glide_esite>
-0.160027054297439

> <r_i_glide_emodel>
-55.2663265674293

> <r_i_glide_energy>
-52.0762157440186

> <r_i_glide_einternal>
3.11467289924622

> <i_i_glide_confnum>
80

> <i_i_glide_posenum>
327

> <r_i_glide_eff_state_penalty>
0.0024

> <r_lp_tautomer_probability>
0.999998

> <s_m_job_name>
glide-dock_SP_all

> <r_glide_shape_similarity>
0.777242302894592

> <s_m_subgroup_title>
glide-dock_SP_all_lib1

> <s_m_subgroupid>
glide-dock_SP_all_lib1

> <b_m_subgroup_collapsed>
0

$$$$
