/home/yujie/leadopt/data/result/selection/CDK9/lig_10.sdf:1
                    3D
 Schrodinger Suite 2021-2.
 52 55  0  0  1  0            999 V2000
  -48.5303  -40.6088   -5.1435 C   0  0  0  0  0  0
  -47.7332  -41.7773   -4.5614 C   0  0  0  0  0  0
  -47.7583  -42.8733   -5.1284 O   0  0  0  0  0  0
  -47.0360  -41.5337   -3.4292 N   0  0  0  0  0  0
  -46.2970  -42.5320   -2.6445 C   0  0  1  0  0  0
  -45.1884  -43.2070   -3.4797 C   0  0  0  0  0  0
  -43.9184  -42.3586   -3.6224 C   0  0  0  0  0  0
  -43.8355  -41.0625   -2.7774 C   0  0  1  0  0  0
  -44.3361  -41.3287   -1.3415 C   0  0  0  0  0  0
  -45.7687  -41.9321   -1.3017 C   0  0  0  0  0  0
  -42.4277  -40.5407   -2.8420 C   0  0  0  0  0  0
  -41.3476  -41.4191   -2.8186 N   0  0  0  0  0  0
  -40.1691  -40.7392   -2.9970 C   0  0  0  0  0  0
  -38.9272  -41.2954   -3.0881 N   0  0  0  0  0  0
  -37.9313  -40.3922   -3.2347 C   0  0  0  0  0  0
  -38.1208  -38.9924   -3.2719 C   0  0  0  0  0  0
  -39.4250  -38.4469   -3.1653 C   0  0  0  0  0  0
  -40.5137  -39.3532   -3.0489 C   0  0  0  0  0  0
  -41.9548  -39.2545   -2.9676 C   0  0  0  0  0  0
  -39.6316  -36.9829   -3.2216 C   0  0  0  0  0  0
  -40.3003  -36.2674   -2.1871 C   0  0  0  0  0  0
  -40.4867  -34.8651   -2.3272 C   0  0  0  0  0  0
  -39.9922  -34.1839   -3.4593 C   0  0  0  0  0  0
  -39.3053  -34.8909   -4.4625 C   0  0  0  0  0  0
  -39.1308  -36.2808   -4.3429 C   0  0  0  0  0  0
  -40.1690  -32.8458   -3.5894 F   0  0  0  0  0  0
  -40.7241  -36.9809   -1.0786 O   0  0  0  0  0  0
  -41.2590  -36.2754    0.0378 C   0  0  0  0  0  0
  -47.0238  -43.3075   -2.3876 H   0  0  0  0  0  0
  -44.4928  -40.3176   -3.2286 H   0  0  0  0  0  0
  -41.4481  -42.4263   -2.6977 H   0  0  0  0  0  0
  -48.6504  -40.7305   -6.2219 H   0  0  0  0  0  0
  -48.0353  -39.6520   -4.9551 H   0  0  0  0  0  0
  -49.5277  -40.5775   -4.7021 H   0  0  0  0  0  0
  -47.0738  -40.6003   -3.0399 H   0  0  0  0  0  0
  -44.9224  -44.1569   -3.0230 H   0  0  0  0  0  0
  -45.5313  -43.5013   -4.4673 H   0  0  0  0  0  0
  -43.1236  -43.0465   -3.3463 H   0  0  0  0  0  0
  -43.7004  -42.1043   -4.6509 H   0  0  0  0  0  0
  -44.2991  -40.4120   -0.7506 H   0  0  0  0  0  0
  -43.6499  -42.0265   -0.8560 H   0  0  0  0  0  0
  -46.4718  -41.1775   -0.9401 H   0  0  0  0  0  0
  -45.7803  -42.7198   -0.5484 H   0  0  0  0  0  0
  -36.9332  -40.7951   -3.3146 H   0  0  0  0  0  0
  -37.2651  -38.3415   -3.3807 H   0  0  0  0  0  0
  -42.5330  -38.3432   -3.0019 H   0  0  0  0  0  0
  -40.9984  -34.2843   -1.5741 H   0  0  0  0  0  0
  -38.9243  -34.3706   -5.3275 H   0  0  0  0  0  0
  -38.6131  -36.8166   -5.1256 H   0  0  0  0  0  0
  -41.4762  -36.9819    0.8387 H   0  0  0  0  0  0
  -40.5500  -35.5432    0.4285 H   0  0  0  0  0  0
  -42.1916  -35.7726   -0.2185 H   0  0  0  0  0  0
  1  2  1  0  0  0
  1 32  1  0  0  0
  1 33  1  0  0  0
  1 34  1  0  0  0
  2  3  2  0  0  0
  2  4  1  0  0  0
  4  5  1  0  0  0
  4 35  1  0  0  0
  5 29  1  0  0  0
  5 10  1  0  0  0
  5  6  1  0  0  0
  6  7  1  0  0  0
  6 36  1  0  0  0
  6 37  1  0  0  0
  7  8  1  0  0  0
  7 38  1  0  0  0
  7 39  1  0  0  0
  8 30  1  0  0  0
  8  9  1  0  0  0
  8 11  1  0  0  0
  9 10  1  0  0  0
  9 40  1  0  0  0
  9 41  1  0  0  0
 10 42  1  0  0  0
 10 43  1  0  0  0
 11 19  2  0  0  0
 11 12  1  0  0  0
 12 31  1  0  0  0
 12 13  1  0  0  0
 13 18  2  0  0  0
 13 14  1  0  0  0
 14 15  2  0  0  0
 15 16  1  0  0  0
 15 44  1  0  0  0
 16 17  2  0  0  0
 16 45  1  0  0  0
 17 18  1  0  0  0
 17 20  1  0  0  0
 18 19  1  0  0  0
 19 46  1  0  0  0
 20 25  1  0  0  0
 20 21  2  0  0  0
 21 22  1  0  0  0
 21 27  1  0  0  0
 22 23  2  0  0  0
 22 47  1  0  0  0
 23 24  1  0  0  0
 23 26  1  0  0  0
 24 25  2  0  0  0
 24 48  1  0  0  0
 25 49  1  0  0  0
 27 28  1  0  0  0
 28 50  1  0  0  0
 28 51  1  0  0  0
 28 52  1  0  0  0
M  END
> <s_m_entry_id>
242

> <s_m_entry_name>
CDK9_lig_10.1

> <s_m_Source_Path>
C:\Users\yujiethinkpad\Desktop\selection\selection\CDK9_pose

> <s_m_Source_File>
CDK9_lig_10.sdf

> <i_m_Source_File_Index>
1

> <i_lp_mmshare_version>
51139

> <i_f3d_flags>
0

> <s_epik_input>
W0NIM11DKD1PKVtOSF1bQ0BIXTFbQ0gyXVtDSDJdW0NAQEhdKFtDSDJdW0NIMl0xKWMoW25IXTIpW2NIXWMoYzIzKWMoW2NIXVtjSF1uMyktYzRjKE9bQ0gzXSlbY0hdYyhGKVtjSF1bY0hdNA==

> <s_epik_cmdline>
J2VwaWtfcHl0aG9uJywgJy1waHQnLCAnMi4wJywgJy1waCcsICc3LjAnLCAnLXRuJywgJzgnLCAnLW1hJywgJzIwMCcsICctaW1hZScsICc8aW5maWxlLm1hZT4nLCAnLW9tYWUnLCAnPG91dGZpbGUubWFlPic=

> <r_epik_Ionization_Penalty>
  0.0028

> <r_epik_Ionization_Penalty_Charging>
  0.0000

> <r_epik_Ionization_Penalty_Neutral>
  0.0028

> <r_epik_State_Penalty>
  0.0019

> <r_epik_Charging_Adjusted_Penalty>
0.00193871

> <i_epik_Tot_Q>
0

> <i_epik_Tot_abs_Q>
0

> <s_lp_Force_Field>
OPLS3e

> <r_lp_Energy>
34.4006

> <b_lp_Chiralities_Consistent>
1

> <s_lp_Variant>
/home/yujie/leadopt/data/result/selection/CDK9/lig_10.sdf:1-1

> <s_i_glide_gridfile>
glide-grid_CDK9

> <i_i_glide_lignum>
8

> <i_i_glide_rotatable_bonds>
5

> <r_i_docking_score>
-8.92150279742552

> <r_i_glide_ligand_efficiency>
-0.318625099908054

> <r_i_glide_ligand_efficiency_sa>
-0.967533463468906

> <r_i_glide_ligand_efficiency_ln>
-2.05934479235024

> <r_i_glide_gscore>
-8.92340279742552

> <r_i_glide_lipo>
-3.00510393416634

> <r_i_glide_hbond>
-0.497179195341327

> <r_i_glide_metal>
0

> <r_i_glide_rewards>
-2.29283441755826

> <r_i_glide_evdw>
-43.1472663879395

> <r_i_glide_ecoul>
-7.71152782440186

> <r_i_glide_erotb>
0.280162701438575

> <r_i_glide_esite>
-0.0943554587409108

> <r_i_glide_emodel>
-73.370982485425

> <r_i_glide_energy>
-50.8587942123413

> <r_i_glide_einternal>
1.5577038526535

> <i_i_glide_confnum>
23

> <i_i_glide_posenum>
94

> <r_i_glide_eff_state_penalty>
0.0019

> <r_lp_tautomer_probability>
0.999998

> <s_m_job_name>
glide-dock_SP_all

> <r_glide_shape_similarity>
0.942225277423859

> <s_m_subgroup_title>
glide-dock_SP_all_lib1

> <s_m_subgroupid>
glide-dock_SP_all_lib1

> <b_m_subgroup_collapsed>
0

$$$$
