/home/yujie/leadopt/data/result/selection/CDK9/lig_38.sdf:1
                    3D
 Schrodinger Suite 2021-2.
 69 73  0  0  1  0            999 V2000
  -42.0754  -34.9248   -0.3615 C   0  0  0  0  0  0
  -41.8820  -34.4019   -1.8150 C   0  0  0  0  0  0
  -43.1765  -34.6018   -2.6448 C   0  0  0  0  0  0
  -40.7158  -34.9657   -2.5507 N   0  0  0  0  0  0
  -40.5019  -36.3622   -2.4662 C   0  0  0  0  0  0
  -39.6132  -37.0114   -3.2391 C   0  0  0  0  0  0
  -38.8508  -36.2112   -4.1809 C   0  0  0  0  0  0
  -39.0404  -34.8840   -4.2830 C   0  0  0  0  0  0
  -40.0122  -34.1840   -3.4426 C   0  0  0  0  0  0
  -40.1915  -32.9706   -3.5769 O   0  0  0  0  0  0
  -39.4220  -38.4750   -3.1906 C   0  0  0  0  0  0
  -38.1102  -38.9859   -3.3382 C   0  0  0  0  0  0
  -37.8965  -40.3776   -3.3225 C   0  0  0  0  0  0
  -38.8756  -41.2949   -3.1963 N   0  0  0  0  0  0
  -40.1215  -40.7683   -3.0561 C   0  0  0  0  0  0
  -40.4994  -39.3922   -3.0239 C   0  0  0  0  0  0
  -41.9308  -39.3574   -2.8126 C   0  0  0  0  0  0
  -42.3334  -40.6612   -2.6098 C   0  0  0  0  0  0
  -41.2594  -41.4973   -2.8329 N   0  0  0  0  0  0
  -43.6331  -41.2804   -2.1977 C   0  0  0  0  0  0
  -44.6977  -40.2585   -1.7533 C   0  0  0  0  0  0
  -46.0908  -40.9043   -1.6061 C   0  0  0  0  0  0
  -46.4162  -41.5069   -2.9031 N   0  0  1  0  0  0
  -45.5697  -42.6784   -3.1079 C   0  0  0  0  0  0
  -44.1472  -42.1832   -3.3295 C   0  0  0  0  0  0
  -47.8460  -41.7688   -3.1186 C   0  0  0  0  0  0
  -48.1959  -41.7504   -4.6215 C   0  0  0  0  0  0
  -48.4212  -40.6442   -5.1227 O   0  0  0  0  0  0
  -48.2636  -42.9002   -5.3526 N   0  0  0  0  0  0
  -48.6874  -42.8795   -6.7740 C   0  0  0  0  0  0
  -47.6710  -43.6277   -7.6761 C   0  0  0  0  0  0
  -47.4511  -45.0752   -7.1863 C   0  0  0  0  0  0
  -47.0865  -45.0941   -5.6842 C   0  0  0  0  0  0
  -48.1060  -44.2826   -4.8358 C   0  0  0  0  0  0
  -41.3159  -42.5072   -2.7265 H   0  0  0  0  0  0
  -42.9286  -34.4168    0.0942 H   0  0  0  0  0  0
  -42.2926  -35.9926   -0.2924 H   0  0  0  0  0  0
  -41.2281  -34.7016    0.2783 H   0  0  0  0  0  0
  -41.7415  -33.3245   -1.7062 H   0  0  0  0  0  0
  -44.0198  -34.0878   -2.1805 H   0  0  0  0  0  0
  -43.0681  -34.2099   -3.6583 H   0  0  0  0  0  0
  -43.4357  -35.6601   -2.7233 H   0  0  0  0  0  0
  -41.1241  -36.8865   -1.7633 H   0  0  0  0  0  0
  -38.1307  -36.6838   -4.8328 H   0  0  0  0  0  0
  -38.4639  -34.3220   -5.0022 H   0  0  0  0  0  0
  -37.2611  -38.3270   -3.4488 H   0  0  0  0  0  0
  -36.8936  -40.7621   -3.4317 H   0  0  0  0  0  0
  -42.5390  -38.4703   -2.7303 H   0  0  0  0  0  0
  -43.4447  -41.9273   -1.3387 H   0  0  0  0  0  0
  -44.7741  -39.4616   -2.4939 H   0  0  0  0  0  0
  -44.3938  -39.7860   -0.8196 H   0  0  0  0  0  0
  -46.8110  -40.1249   -1.3492 H   0  0  0  0  0  0
  -46.1180  -41.6397   -0.7990 H   0  0  0  0  0  0
  -45.6356  -43.3815   -2.2750 H   0  0  0  0  0  0
  -45.8503  -43.2119   -4.0058 H   0  0  0  0  0  0
  -43.4811  -43.0389   -3.4564 H   0  0  0  0  0  0
  -44.1254  -41.6190   -4.2572 H   0  0  0  0  0  0
  -48.4244  -40.9590   -2.6715 H   0  0  0  0  0  0
  -48.1714  -42.6651   -2.5921 H   0  0  0  0  0  0
  -48.8281  -41.8721   -7.1667 H   0  0  0  0  0  0
  -49.6649  -43.3577   -6.8518 H   0  0  0  0  0  0
  -46.7187  -43.1000   -7.6746 H   0  0  0  0  0  0
  -48.0216  -43.6302   -8.7063 H   0  0  0  0  0  0
  -48.3632  -45.6518   -7.3427 H   0  0  0  0  0  0
  -46.6692  -45.5568   -7.7728 H   0  0  0  0  0  0
  -47.0438  -46.1206   -5.3256 H   0  0  0  0  0  0
  -46.0821  -44.6928   -5.5654 H   0  0  0  0  0  0
  -47.8100  -44.3393   -3.7908 H   0  0  0  0  0  0
  -49.0792  -44.7703   -4.8843 H   0  0  0  0  0  0
  1  2  1  0  0  0
  1 36  1  0  0  0
  1 37  1  0  0  0
  1 38  1  0  0  0
  2  3  1  0  0  0
  2  4  1  0  0  0
  2 39  1  0  0  0
  3 40  1  0  0  0
  3 41  1  0  0  0
  3 42  1  0  0  0
  4  9  1  0  0  0
  4  5  1  0  0  0
  5  6  2  0  0  0
  5 43  1  0  0  0
  6  7  1  0  0  0
  6 11  1  0  0  0
  7  8  2  0  0  0
  7 44  1  0  0  0
  8  9  1  0  0  0
  8 45  1  0  0  0
  9 10  2  0  0  0
 11 16  1  0  0  0
 11 12  2  0  0  0
 12 13  1  0  0  0
 12 46  1  0  0  0
 13 14  2  0  0  0
 13 47  1  0  0  0
 14 15  1  0  0  0
 15 19  1  0  0  0
 15 16  2  0  0  0
 16 17  1  0  0  0
 17 18  2  0  0  0
 17 48  1  0  0  0
 18 19  1  0  0  0
 18 20  1  0  0  0
 19 35  1  0  0  0
 20 25  1  0  0  0
 20 21  1  0  0  0
 20 49  1  0  0  0
 21 22  1  0  0  0
 21 50  1  0  0  0
 21 51  1  0  0  0
 22 23  1  0  0  0
 22 52  1  0  0  0
 22 53  1  0  0  0
 23 24  1  0  0  0
 23 26  1  0  0  0
 24 25  1  0  0  0
 24 54  1  0  0  0
 24 55  1  0  0  0
 25 56  1  0  0  0
 25 57  1  0  0  0
 26 27  1  0  0  0
 26 58  1  0  0  0
 26 59  1  0  0  0
 27 28  2  0  0  0
 27 29  1  0  0  0
 29 34  1  0  0  0
 29 30  1  0  0  0
 30 31  1  0  0  0
 30 60  1  0  0  0
 30 61  1  0  0  0
 31 32  1  0  0  0
 31 62  1  0  0  0
 31 63  1  0  0  0
 32 33  1  0  0  0
 32 64  1  0  0  0
 32 65  1  0  0  0
 33 34  1  0  0  0
 33 66  1  0  0  0
 33 67  1  0  0  0
 34 68  1  0  0  0
 34 69  1  0  0  0
M  END
> <s_m_entry_id>
260

> <s_m_entry_name>
CDK9_lig_38.1

> <s_m_Source_Path>
C:\Users\yujiethinkpad\Desktop\selection\selection\CDK9_pose

> <s_m_Source_File>
CDK9_lig_38.sdf

> <i_m_Source_File_Index>
1

> <i_lp_mmshare_version>
51139

> <i_f3d_flags>
0

> <s_epik_input>
W0NIM11bQ0hdKFtDSDNdKW4xW2NIXWMoW2NIXVtjSF1jMT1PKS1jKFtjSF1bY0hdbjIpYyhjMjMpW2NIXWMoW25IXTMpW0NIXTRbQ0gyXVtDSDJdTihbQ0gyXVtDSDJdNClbQ0gyXUMoPU8pTjVbQ0gyXVtDSDJdW0NIMl1bQ0gyXVtDSDJdNQ==

> <s_epik_cmdline>
J2VwaWtfcHl0aG9uJywgJy1waHQnLCAnMi4wJywgJy1waCcsICc3LjAnLCAnLXRuJywgJzgnLCAnLW1hJywgJzIwMCcsICctaW1hZScsICc8aW5maWxlLm1hZT4nLCAnLW9tYWUnLCAnPG91dGZpbGUubWFlPic=

> <r_epik_Ionization_Penalty>
  1.3031

> <r_epik_Ionization_Penalty_Charging>
  0.0000

> <r_epik_Ionization_Penalty_Neutral>
  1.3031

> <r_epik_State_Penalty>
  1.3758

> <r_epik_Charging_Adjusted_Penalty>
1.37575

> <i_epik_Tot_Q>
0

> <i_epik_Tot_abs_Q>
0

> <s_lp_Force_Field>
OPLS3e

> <r_lp_Energy>
56.7461

> <b_lp_Chiralities_Consistent>
1

> <s_lp_Variant>
/home/yujie/leadopt/data/result/selection/CDK9/lig_38.sdf:1-2

> <s_i_glide_gridfile>
glide-grid_CDK9

> <i_i_glide_lignum>
36

> <i_i_glide_rotatable_bonds>
6

> <r_i_docking_score>
-7.26415170146156

> <r_i_glide_ligand_efficiency>
-0.213651520631222

> <r_i_glide_ligand_efficiency_sa>
-0.692147986784199

> <r_i_glide_ligand_efficiency_ln>
-1.60485486340652

> <r_i_glide_gscore>
-8.63995170146156

> <r_i_glide_lipo>
-2.82982069527926

> <r_i_glide_hbond>
-0.505630236427754

> <r_i_glide_metal>
0

> <r_i_glide_rewards>
-1.85740936958907

> <r_i_glide_evdw>
-48.2533950805664

> <r_i_glide_ecoul>
-9.10136222839355

> <r_i_glide_erotb>
0.330782688121884

> <r_i_glide_esite>
0

> <r_i_glide_emodel>
-61.3153456672231

> <r_i_glide_energy>
-57.35475730896

> <r_i_glide_einternal>
2.63350987434387

> <i_i_glide_confnum>
125

> <i_i_glide_posenum>
34

> <r_i_glide_eff_state_penalty>
1.3758

> <r_lp_tautomer_probability>
0.999998

> <s_m_job_name>
glide-dock_SP_all

> <r_glide_shape_similarity>
0.739065945148468

> <s_m_subgroup_title>
glide-dock_SP_all_lib1

> <s_m_subgroupid>
glide-dock_SP_all_lib1

> <b_m_subgroup_collapsed>
0

$$$$
