/home/yujie/leadopt/data/result/selection/CDK9/lig_19.sdf:1
                    3D
 Schrodinger Suite 2021-2.
 71 75  0  0  1  0            999 V2000
  -49.5672  -44.2998    1.3090 C   0  0  0  0  0  0
  -49.1919  -43.3988    0.2019 N   0  0  0  0  0  0
  -49.9183  -42.1175    0.1451 C   0  0  0  0  0  0
  -48.2207  -43.7641   -0.6828 C   0  0  0  0  0  0
  -47.6380  -44.8488   -0.5815 O   0  0  0  0  0  0
  -47.8545  -42.8406   -1.8822 C   0  0  0  0  0  0
  -46.3982  -42.6477   -2.1428 N   0  0  1  0  0  0
  -46.2636  -41.8947   -3.3917 C   0  0  0  0  0  0
  -44.7814  -41.6736   -3.7385 C   0  0  0  0  0  0
  -44.0397  -40.9126   -2.6108 C   0  0  0  0  0  0
  -44.2346  -41.7123   -1.3127 C   0  0  0  0  0  0
  -45.7320  -41.9460   -1.0301 C   0  0  0  0  0  0
  -42.5911  -40.5554   -2.8617 C   0  0  0  0  0  0
  -42.0264  -39.3062   -2.9799 C   0  0  0  0  0  0
  -40.5971  -39.4889   -3.0634 C   0  0  0  0  0  0
  -39.4547  -38.6567   -3.1433 C   0  0  0  0  0  0
  -38.1761  -39.2451   -3.2333 C   0  0  0  0  0  0
  -38.0696  -40.6480   -3.2141 C   0  0  0  0  0  0
  -39.1197  -41.4973   -3.1202 N   0  0  0  0  0  0
  -40.3375  -40.8842   -3.0550 C   0  0  0  0  0  0
  -41.5686  -41.4963   -2.9254 N   0  0  0  0  0  0
  -39.6022  -37.2076   -3.1711 C   0  0  0  0  0  0
  -39.2009  -36.5299   -4.3412 C   0  0  0  0  0  0
  -39.4533  -35.1619   -4.4783 C   0  0  0  0  0  0
  -40.0744  -34.4704   -3.4209 C   0  0  0  0  0  0
  -40.3211  -35.1121   -2.2026 C   0  0  0  0  0  0
  -40.1633  -36.4974   -2.0789 C   0  0  0  0  0  0
  -40.5502  -37.1688   -0.9368 O   0  0  0  0  0  0
  -41.2193  -36.4397    0.0945 C   0  0  0  0  0  0
  -40.4175  -33.0410   -3.6006 C   0  0  0  0  0  0
  -39.6283  -32.3839   -4.2554 O   0  0  0  0  0  0
  -41.5944  -32.5455   -3.1505 N   0  0  0  0  0  0
  -41.9934  -31.1595   -3.4338 C   0  0  0  0  0  0
  -43.2279  -30.8985   -2.5662 C   0  0  0  0  0  0
  -43.8186  -32.2986   -2.3252 C   0  0  0  0  0  0
  -42.5989  -33.2019   -2.2952 C   0  0  0  0  0  0
  -41.7158  -42.4959   -2.8079 H   0  0  0  0  0  0
  -49.6580  -45.3313    0.9679 H   0  0  0  0  0  0
  -50.5248  -44.0331    1.7560 H   0  0  0  0  0  0
  -48.8092  -44.2699    2.0920 H   0  0  0  0  0  0
  -49.2290  -41.2813    0.2764 H   0  0  0  0  0  0
  -50.4275  -42.0033   -0.8129 H   0  0  0  0  0  0
  -50.6775  -42.0273    0.9223 H   0  0  0  0  0  0
  -48.3134  -43.3041   -2.7560 H   0  0  0  0  0  0
  -48.3185  -41.8597   -1.7884 H   0  0  0  0  0  0
  -46.7437  -42.4388   -4.2066 H   0  0  0  0  0  0
  -46.7709  -40.9312   -3.3111 H   0  0  0  0  0  0
  -44.2880  -42.6222   -3.9562 H   0  0  0  0  0  0
  -44.8280  -41.1013   -4.6565 H   0  0  0  0  0  0
  -44.5705  -39.9686   -2.4763 H   0  0  0  0  0  0
  -43.7882  -41.1773   -0.4734 H   0  0  0  0  0  0
  -43.7178  -42.6716   -1.3773 H   0  0  0  0  0  0
  -46.2274  -40.9924   -0.8383 H   0  0  0  0  0  0
  -45.8266  -42.5294   -0.1157 H   0  0  0  0  0  0
  -42.5379  -38.3544   -2.9545 H   0  0  0  0  0  0
  -37.2897  -38.6309   -3.3089 H   0  0  0  0  0  0
  -37.0950  -41.0995   -3.2711 H   0  0  0  0  0  0
  -38.7606  -37.0757   -5.1633 H   0  0  0  0  0  0
  -39.2100  -34.6650   -5.4063 H   0  0  0  0  0  0
  -40.6788  -34.5356   -1.3738 H   0  0  0  0  0  0
  -41.4990  -37.1128    0.9028 H   0  0  0  0  0  0
  -40.5712  -35.6783    0.5293 H   0  0  0  0  0  0
  -42.1359  -35.9740   -0.2711 H   0  0  0  0  0  0
  -41.1953  -30.4521   -3.2018 H   0  0  0  0  0  0
  -42.2401  -31.0655   -4.4921 H   0  0  0  0  0  0
  -42.9116  -30.4680   -1.6154 H   0  0  0  0  0  0
  -43.9111  -30.1904   -3.0321 H   0  0  0  0  0  0
  -44.4272  -32.6331   -3.1642 H   0  0  0  0  0  0
  -44.4175  -32.3614   -1.4164 H   0  0  0  0  0  0
  -42.8448  -34.2141   -2.6185 H   0  0  0  0  0  0
  -42.2488  -33.2240   -1.2637 H   0  0  0  0  0  0
  1  2  1  0  0  0
  1 38  1  0  0  0
  1 39  1  0  0  0
  1 40  1  0  0  0
  2  3  1  0  0  0
  2  4  1  0  0  0
  3 41  1  0  0  0
  3 42  1  0  0  0
  3 43  1  0  0  0
  4  5  2  0  0  0
  4  6  1  0  0  0
  6  7  1  0  0  0
  6 44  1  0  0  0
  6 45  1  0  0  0
  7 12  1  0  0  0
  7  8  1  0  0  0
  8  9  1  0  0  0
  8 46  1  0  0  0
  8 47  1  0  0  0
  9 10  1  0  0  0
  9 48  1  0  0  0
  9 49  1  0  0  0
 10 11  1  0  0  0
 10 13  1  0  0  0
 10 50  1  0  0  0
 11 12  1  0  0  0
 11 51  1  0  0  0
 11 52  1  0  0  0
 12 53  1  0  0  0
 12 54  1  0  0  0
 13 21  1  0  0  0
 13 14  2  0  0  0
 14 15  1  0  0  0
 14 55  1  0  0  0
 15 20  2  0  0  0
 15 16  1  0  0  0
 16 17  2  0  0  0
 16 22  1  0  0  0
 17 18  1  0  0  0
 17 56  1  0  0  0
 18 19  2  0  0  0
 18 57  1  0  0  0
 19 20  1  0  0  0
 20 21  1  0  0  0
 21 37  1  0  0  0
 22 27  1  0  0  0
 22 23  2  0  0  0
 23 24  1  0  0  0
 23 58  1  0  0  0
 24 25  2  0  0  0
 24 59  1  0  0  0
 25 26  1  0  0  0
 25 30  1  0  0  0
 26 27  2  0  0  0
 26 60  1  0  0  0
 27 28  1  0  0  0
 28 29  1  0  0  0
 29 61  1  0  0  0
 29 62  1  0  0  0
 29 63  1  0  0  0
 30 31  2  0  0  0
 30 32  1  0  0  0
 32 36  1  0  0  0
 32 33  1  0  0  0
 33 34  1  0  0  0
 33 64  1  0  0  0
 33 65  1  0  0  0
 34 35  1  0  0  0
 34 66  1  0  0  0
 34 67  1  0  0  0
 35 36  1  0  0  0
 35 68  1  0  0  0
 35 69  1  0  0  0
 36 70  1  0  0  0
 36 71  1  0  0  0
M  END
> <s_m_entry_id>
257

> <s_m_entry_name>
CDK9_lig_19.1

> <s_m_Source_Path>
C:\Users\yujiethinkpad\Desktop\selection\selection\CDK9_pose

> <s_m_Source_File>
CDK9_lig_19.sdf

> <i_m_Source_File_Index>
1

> <i_lp_mmshare_version>
51139

> <i_f3d_flags>
0

> <s_epik_input>
W0NIM11OKFtDSDNdKUMoPU8pW0NIMl1OMVtDSDJdW0NIMl1bQ0hdKFtDSDJdW0NIMl0xKWMoW2NIXTIpW25IXWMoYzIzKW5bY0hdW2NIXWMzLWM0W2NIXVtjSF1jKFtjSF1jNE9bQ0gzXSlDKD1PKU41W0NIMl1bQ0gyXVtDSDJdW0NIMl01

> <s_epik_cmdline>
J2VwaWtfcHl0aG9uJywgJy1waHQnLCAnMi4wJywgJy1waCcsICc3LjAnLCAnLXRuJywgJzgnLCAnLW1hJywgJzIwMCcsICctaW1hZScsICc8aW5maWxlLm1hZT4nLCAnLW9tYWUnLCAnPG91dGZpbGUubWFlPic=

> <r_epik_Ionization_Penalty>
  1.2423

> <r_epik_Ionization_Penalty_Charging>
  0.0000

> <r_epik_Ionization_Penalty_Neutral>
  1.2423

> <r_epik_State_Penalty>
  1.3436

> <r_epik_Charging_Adjusted_Penalty>
1.34359

> <i_epik_Tot_Q>
0

> <i_epik_Tot_abs_Q>
0

> <s_lp_Force_Field>
OPLS3e

> <r_lp_Energy>
60.0934

> <b_lp_Chiralities_Consistent>
1

> <s_lp_Variant>
/home/yujie/leadopt/data/result/selection/CDK9/lig_19.sdf:1-2

> <s_i_glide_gridfile>
glide-grid_CDK9

> <i_i_glide_lignum>
17

> <i_i_glide_rotatable_bonds>
8

> <r_i_docking_score>
-8.08445745398189

> <r_i_glide_ligand_efficiency>
-0.224568262610608

> <r_i_glide_ligand_efficiency_sa>
-0.741508064665155

> <r_i_glide_ligand_efficiency_ln>
-1.76381019965961

> <r_i_glide_gscore>
-9.42805745398189

> <r_i_glide_lipo>
-3.1647949719186

> <r_i_glide_hbond>
-0.699479998732774

> <r_i_glide_metal>
0

> <r_i_glide_rewards>
-1.54733161024552

> <r_i_glide_evdw>
-41.0387229919434

> <r_i_glide_ecoul>
-14.0430736541748

> <r_i_glide_erotb>
0.356452408475493

> <r_i_glide_esite>
-0.214506083837095

> <r_i_glide_emodel>
-51.5672361233465

> <r_i_glide_energy>
-55.0817966461182

> <r_i_glide_einternal>
3.08471918106079

> <i_i_glide_confnum>
89

> <i_i_glide_posenum>
342

> <r_i_glide_eff_state_penalty>
1.3436

> <r_lp_tautomer_probability>
0.999998

> <s_m_job_name>
glide-dock_SP_all

> <r_glide_shape_similarity>
0.672562599182129

> <s_m_subgroup_title>
glide-dock_SP_all_lib1

> <s_m_subgroupid>
glide-dock_SP_all_lib1

> <b_m_subgroup_collapsed>
0

$$$$
