/home/yujie/leadopt/data/result/selection/CDK9/lig_29.sdf:1
                    3D
 Schrodinger Suite 2021-2.
 70 74  0  0  1  0            999 V2000
  -48.2758  -44.4317   -4.4246 C   0  0  0  0  0  0
  -48.5119  -43.1403   -5.0956 N   0  0  0  0  0  0
  -48.8566  -43.1998   -6.5243 C   0  0  0  0  0  0
  -48.3928  -41.9403   -4.4715 C   0  0  0  0  0  0
  -48.6116  -40.8698   -5.0488 O   0  0  0  0  0  0
  -47.8924  -41.8893   -3.0036 C   0  0  0  0  0  0
  -46.4391  -42.1757   -2.7657 N   0  0  1  0  0  0
  -45.6341  -42.0318   -3.9918 C   0  0  0  0  0  0
  -44.1500  -42.0742   -3.7046 C   0  0  0  0  0  0
  -43.8439  -40.9255   -2.7567 C   0  0  0  0  0  0
  -44.4413  -41.3233   -1.4053 C   0  0  0  0  0  0
  -45.9777  -41.3934   -1.5876 C   0  0  0  0  0  0
  -42.4230  -40.5195   -2.8120 C   0  0  0  0  0  0
  -41.9428  -39.2443   -2.9439 C   0  0  0  0  0  0
  -40.5121  -39.3425   -3.0436 C   0  0  0  0  0  0
  -39.4097  -38.4489   -3.1682 C   0  0  0  0  0  0
  -38.1169  -39.0226   -3.2651 C   0  0  0  0  0  0
  -37.9573  -40.4217   -3.2525 C   0  0  0  0  0  0
  -38.9670  -41.3091   -3.1500 N   0  0  0  0  0  0
  -40.1954  -40.7397   -3.0423 C   0  0  0  0  0  0
  -41.3780  -41.4216   -2.8638 N   0  0  0  0  0  0
  -39.5561  -36.9628   -3.2618 C   0  0  0  0  0  0
  -38.5150  -36.1709   -3.9040 C   0  0  0  0  0  0
  -38.6167  -34.8390   -4.0611 C   0  0  0  0  0  0
  -39.7989  -34.1055   -3.6244 C   0  0  0  0  0  0
  -39.9049  -32.8910   -3.8189 O   0  0  0  0  0  0
  -40.7894  -34.8720   -3.0761 N   0  0  0  0  0  0
  -40.6376  -36.2617   -2.8505 C   0  0  0  0  0  0
  -42.1489  -34.3088   -2.9691 C   0  0  0  0  0  0
  -42.6545  -34.0099   -1.5302 C   0  0  0  0  0  0
  -43.6268  -32.7979   -1.5788 C   0  0  0  0  0  0
  -44.3458  -32.5701   -0.2336 C   0  0  0  0  0  0
  -45.0879  -33.7443    0.1027 O   0  0  0  0  0  0
  -44.2476  -34.8818    0.3303 C   0  0  0  0  0  0
  -43.3912  -35.2349   -0.9108 C   0  0  0  0  0  0
  -41.4990  -42.4280   -2.7764 H   0  0  0  0  0  0
  -48.7945  -44.4844   -3.4668 H   0  0  0  0  0  0
  -47.2144  -44.5941   -4.2425 H   0  0  0  0  0  0
  -48.6350  -45.2793   -5.0089 H   0  0  0  0  0  0
  -48.0338  -42.8164   -7.1267 H   0  0  0  0  0  0
  -49.0689  -44.2131   -6.8652 H   0  0  0  0  0  0
  -49.7411  -42.5976   -6.7372 H   0  0  0  0  0  0
  -48.1291  -40.8722   -2.6835 H   0  0  0  0  0  0
  -48.4978  -42.5281   -2.3597 H   0  0  0  0  0  0
  -45.8511  -42.8287   -4.7014 H   0  0  0  0  0  0
  -45.8576  -41.0880   -4.4905 H   0  0  0  0  0  0
  -43.8346  -43.0382   -3.3024 H   0  0  0  0  0  0
  -43.6277  -41.9338   -4.6437 H   0  0  0  0  0  0
  -44.3935  -40.0457   -3.0993 H   0  0  0  0  0  0
  -44.1968  -40.5759   -0.6504 H   0  0  0  0  0  0
  -44.0364  -42.2742   -1.0562 H   0  0  0  0  0  0
  -46.3205  -40.3598   -1.6731 H   0  0  0  0  0  0
  -46.4451  -41.7914   -0.6858 H   0  0  0  0  0  0
  -42.5481  -38.3529   -2.9722 H   0  0  0  0  0  0
  -37.2235  -38.4227   -3.3332 H   0  0  0  0  0  0
  -36.9661  -40.8439   -3.3211 H   0  0  0  0  0  0
  -37.6235  -36.6373   -4.2897 H   0  0  0  0  0  0
  -37.8133  -34.3019   -4.5432 H   0  0  0  0  0  0
  -41.4886  -36.7078   -2.3711 H   0  0  0  0  0  0
  -42.2338  -33.3985   -3.5653 H   0  0  0  0  0  0
  -42.8397  -34.9870   -3.4703 H   0  0  0  0  0  0
  -41.8163  -33.7325   -0.8891 H   0  0  0  0  0  0
  -43.0800  -31.8958   -1.8605 H   0  0  0  0  0  0
  -44.3788  -32.9632   -2.3514 H   0  0  0  0  0  0
  -43.6307  -32.3223    0.5495 H   0  0  0  0  0  0
  -45.0345  -31.7298   -0.3121 H   0  0  0  0  0  0
  -43.6274  -34.6992    1.2043 H   0  0  0  0  0  0
  -44.8770  -35.7393    0.5618 H   0  0  0  0  0  0
  -44.0582  -35.6693   -1.6555 H   0  0  0  0  0  0
  -42.6823  -36.0163   -0.6398 H   0  0  0  0  0  0
  1  2  1  0  0  0
  1 37  1  0  0  0
  1 38  1  0  0  0
  1 39  1  0  0  0
  2  3  1  0  0  0
  2  4  1  0  0  0
  3 40  1  0  0  0
  3 41  1  0  0  0
  3 42  1  0  0  0
  4  5  2  0  0  0
  4  6  1  0  0  0
  6  7  1  0  0  0
  6 43  1  0  0  0
  6 44  1  0  0  0
  7 12  1  0  0  0
  7  8  1  0  0  0
  8  9  1  0  0  0
  8 45  1  0  0  0
  8 46  1  0  0  0
  9 10  1  0  0  0
  9 47  1  0  0  0
  9 48  1  0  0  0
 10 11  1  0  0  0
 10 13  1  0  0  0
 10 49  1  0  0  0
 11 12  1  0  0  0
 11 50  1  0  0  0
 11 51  1  0  0  0
 12 52  1  0  0  0
 12 53  1  0  0  0
 13 21  1  0  0  0
 13 14  2  0  0  0
 14 15  1  0  0  0
 14 54  1  0  0  0
 15 20  2  0  0  0
 15 16  1  0  0  0
 16 17  2  0  0  0
 16 22  1  0  0  0
 17 18  1  0  0  0
 17 55  1  0  0  0
 18 19  2  0  0  0
 18 56  1  0  0  0
 19 20  1  0  0  0
 20 21  1  0  0  0
 21 36  1  0  0  0
 22 28  2  0  0  0
 22 23  1  0  0  0
 23 24  2  0  0  0
 23 57  1  0  0  0
 24 25  1  0  0  0
 24 58  1  0  0  0
 25 26  2  0  0  0
 25 27  1  0  0  0
 27 28  1  0  0  0
 27 29  1  0  0  0
 28 59  1  0  0  0
 29 30  1  0  0  0
 29 60  1  0  0  0
 29 61  1  0  0  0
 30 35  1  0  0  0
 30 31  1  0  0  0
 30 62  1  0  0  0
 31 32  1  0  0  0
 31 63  1  0  0  0
 31 64  1  0  0  0
 32 33  1  0  0  0
 32 65  1  0  0  0
 32 66  1  0  0  0
 33 34  1  0  0  0
 34 35  1  0  0  0
 34 67  1  0  0  0
 34 68  1  0  0  0
 35 69  1  0  0  0
 35 70  1  0  0  0
M  END
> <s_m_entry_id>
259

> <s_m_entry_name>
CDK9_lig_29.1

> <s_m_Source_Path>
C:\Users\yujiethinkpad\Desktop\selection\selection\CDK9_pose

> <s_m_Source_File>
CDK9_lig_29.sdf

> <i_m_Source_File_Index>
1

> <i_lp_mmshare_version>
51139

> <i_f3d_flags>
0

> <s_epik_input>
W0NIM11OKFtDSDNdKUMoPU8pW0NIMl1OMVtDSDJdW0NIMl1bQ0hdKFtDSDJdW0NIMl0xKWMoW2NIXTIpW25IXWMoYzIzKW5bY0hdW2NIXWMzLWM0W2NIXVtjSF1jKD1PKW4oW2NIXTQpW0NIMl1bQ0hdNVtDSDJdW0NIMl1PW0NIMl1bQ0gyXTU=

> <s_epik_cmdline>
J2VwaWtfcHl0aG9uJywgJy1waHQnLCAnMi4wJywgJy1waCcsICc3LjAnLCAnLXRuJywgJzgnLCAnLW1hJywgJzIwMCcsICctaW1hZScsICc8aW5maWxlLm1hZT4nLCAnLW9tYWUnLCAnPG91dGZpbGUubWFlPic=

> <r_epik_Ionization_Penalty>
  1.2409

> <r_epik_Ionization_Penalty_Charging>
  0.0000

> <r_epik_Ionization_Penalty_Neutral>
  1.2409

> <r_epik_State_Penalty>
  1.3083

> <r_epik_Charging_Adjusted_Penalty>
1.30828

> <i_epik_Tot_Q>
0

> <i_epik_Tot_abs_Q>
0

> <s_lp_Force_Field>
OPLS3e

> <r_lp_Energy>
56.991

> <b_lp_Chiralities_Consistent>
1

> <s_lp_Variant>
/home/yujie/leadopt/data/result/selection/CDK9/lig_29.sdf:1-2

> <s_i_glide_gridfile>
glide-grid_CDK9

> <i_i_glide_lignum>
27

> <i_i_glide_rotatable_bonds>
7

> <r_i_docking_score>
-7.43974003582184

> <r_i_glide_ligand_efficiency>
-0.212564001023481

> <r_i_glide_ligand_efficiency_sa>
-0.695310941682778

> <r_i_glide_ligand_efficiency_ln>
-1.63318805399677

> <r_i_glide_gscore>
-8.74804003582184

> <r_i_glide_lipo>
-2.76249886663446

> <r_i_glide_hbond>
-0.66620244251092

> <r_i_glide_metal>
0

> <r_i_glide_rewards>
-1.67178384029842

> <r_i_glide_evdw>
-49.799503326416

> <r_i_glide_ecoul>
-10.2039651870728

> <r_i_glide_erotb>
0.37301505800367

> <r_i_glide_esite>
0

> <r_i_glide_emodel>
-63.2898624842061

> <r_i_glide_energy>
-60.0034685134888

> <r_i_glide_einternal>
3.58931946754456

> <i_i_glide_confnum>
28

> <i_i_glide_posenum>
143

> <r_i_glide_eff_state_penalty>
1.3083

> <r_lp_tautomer_probability>
0.999998

> <s_m_job_name>
glide-dock_SP_all

> <r_glide_shape_similarity>
0.703730523586273

> <s_m_subgroup_title>
glide-dock_SP_all_lib1

> <s_m_subgroupid>
glide-dock_SP_all_lib1

> <b_m_subgroup_collapsed>
0

$$$$
