/home/yujie/leadopt/data/result/selection/CDK9/lig_36.sdf:1
                    3D
 Schrodinger Suite 2021-2.
 56 59  0  0  1  0            999 V2000
  -42.0667  -35.0910   -0.3746 C   0  0  0  0  0  0
  -41.8059  -34.4297   -1.7626 C   0  0  0  0  0  0
  -43.0951  -34.4529   -2.6296 C   0  0  0  0  0  0
  -40.6609  -34.9876   -2.5376 N   0  0  0  0  0  0
  -40.4447  -36.3821   -2.4534 C   0  0  0  0  0  0
  -39.5797  -37.0355   -3.2467 C   0  0  0  0  0  0
  -38.8440  -36.2376   -4.2164 C   0  0  0  0  0  0
  -39.0473  -34.9116   -4.3249 C   0  0  0  0  0  0
  -39.9911  -34.2047   -3.4528 C   0  0  0  0  0  0
  -40.1890  -32.9906   -3.5906 O   0  0  0  0  0  0
  -39.4070  -38.4985   -3.1827 C   0  0  0  0  0  0
  -38.1175  -39.0592   -3.3042 C   0  0  0  0  0  0
  -37.9698  -40.4623   -3.2609 C   0  0  0  0  0  0
  -38.9928  -41.3421   -3.1387 N   0  0  0  0  0  0
  -40.2298  -40.7638   -3.0574 C   0  0  0  0  0  0
  -40.5280  -39.3673   -3.0548 C   0  0  0  0  0  0
  -41.9568  -39.2289   -2.9765 C   0  0  0  0  0  0
  -42.4793  -40.4977   -2.8706 C   0  0  0  0  0  0
  -41.4376  -41.4271   -2.9256 N   0  0  0  0  0  0
  -43.9104  -40.8685   -2.6398 C   0  0  1  0  0  0
  -44.4901  -41.8880   -3.6387 C   0  0  0  0  0  0
  -45.9820  -42.1479   -3.3374 C   0  0  0  0  0  0
  -46.1218  -42.6690   -1.9484 N   0  3  1  0  0  0
  -45.5875  -41.7074   -0.9361 C   0  0  0  0  0  0
  -44.1109  -41.3802   -1.2038 C   0  0  0  0  0  0
  -47.5214  -43.1166   -1.6462 C   0  0  0  0  0  0
  -47.6020  -44.1850   -0.5175 C   0  0  0  0  0  0
  -47.4188  -43.6620    0.7101 F   0  0  0  0  0  0
  -48.7852  -44.8220   -0.5534 F   0  0  0  0  0  0
  -41.5669  -42.4333   -2.8243 H   0  0  0  0  0  0
  -42.8433  -34.5318    0.1522 H   0  0  0  0  0  0
  -41.2058  -35.0841    0.2838 H   0  0  0  0  0  0
  -42.4463  -36.1163   -0.4342 H   0  0  0  0  0  0
  -41.5930  -33.3798   -1.5414 H   0  0  0  0  0  0
  -43.9278  -33.9703   -2.1150 H   0  0  0  0  0  0
  -42.9536  -33.9434   -3.5791 H   0  0  0  0  0  0
  -43.3925  -35.4800   -2.8437 H   0  0  0  0  0  0
  -41.0343  -36.9119   -1.7320 H   0  0  0  0  0  0
  -38.1406  -36.7175   -4.8806 H   0  0  0  0  0  0
  -38.4830  -34.3528   -5.0526 H   0  0  0  0  0  0
  -37.2417  -38.4347   -3.4046 H   0  0  0  0  0  0
  -36.9895  -40.8971   -3.3292 H   0  0  0  0  0  0
  -42.5070  -38.3019   -2.9650 H   0  0  0  0  0  0
  -44.4960  -39.9505   -2.7373 H   0  0  0  0  0  0
  -44.4277  -41.5127   -4.6529 H   0  0  0  0  0  0
  -43.9347  -42.8205   -3.6008 H   0  0  0  0  0  0
  -46.5641  -41.2338   -3.4570 H   0  0  0  0  0  0
  -46.3641  -42.8773   -4.0546 H   0  0  0  0  0  0
  -46.1838  -40.7997   -0.9412 H   0  0  0  0  0  0
  -45.6716  -42.1283    0.0601 H   0  0  0  0  0  0
  -43.5115  -42.2753   -1.0313 H   0  0  0  0  0  0
  -43.7652  -40.6416   -0.4862 H   0  0  0  0  0  0
  -48.1471  -42.2571   -1.4133 H   0  0  0  0  0  0
  -47.9370  -43.5762   -2.5374 H   0  0  0  0  0  0
  -46.8366  -44.9572   -0.6528 H   0  0  0  0  0  0
  -45.5247  -43.4931   -1.9075 H   0  0  0  0  0  0
  1  2  1  0  0  0
  1 31  1  0  0  0
  1 32  1  0  0  0
  1 33  1  0  0  0
  2  3  1  0  0  0
  2  4  1  0  0  0
  2 34  1  0  0  0
  3 35  1  0  0  0
  3 36  1  0  0  0
  3 37  1  0  0  0
  4  9  1  0  0  0
  4  5  1  0  0  0
  5  6  2  0  0  0
  5 38  1  0  0  0
  6  7  1  0  0  0
  6 11  1  0  0  0
  7  8  2  0  0  0
  7 39  1  0  0  0
  8  9  1  0  0  0
  8 40  1  0  0  0
  9 10  2  0  0  0
 11 16  1  0  0  0
 11 12  2  0  0  0
 12 13  1  0  0  0
 12 41  1  0  0  0
 13 14  2  0  0  0
 13 42  1  0  0  0
 14 15  1  0  0  0
 15 19  1  0  0  0
 15 16  2  0  0  0
 16 17  1  0  0  0
 17 18  2  0  0  0
 17 43  1  0  0  0
 18 19  1  0  0  0
 18 20  1  0  0  0
 19 30  1  0  0  0
 20 25  1  0  0  0
 20 21  1  0  0  0
 20 44  1  0  0  0
 21 22  1  0  0  0
 21 45  1  0  0  0
 21 46  1  0  0  0
 22 23  1  0  0  0
 22 47  1  0  0  0
 22 48  1  0  0  0
 23 24  1  0  0  0
 23 26  1  0  0  0
 23 56  1  0  0  0
 24 25  1  0  0  0
 24 49  1  0  0  0
 24 50  1  0  0  0
 25 51  1  0  0  0
 25 52  1  0  0  0
 26 27  1  0  0  0
 26 53  1  0  0  0
 26 54  1  0  0  0
 27 28  1  0  0  0
 27 29  1  0  0  0
 27 55  1  0  0  0
M  CHG  1  23   1
M  END
> <s_m_entry_id>
253

> <s_m_entry_name>
CDK9_lig_36.1

> <s_m_Source_Path>
C:\Users\yujiethinkpad\Desktop\selection\selection\CDK9_pose

> <s_m_Source_File>
CDK9_lig_36.sdf

> <i_m_Source_File_Index>
1

> <i_lp_mmshare_version>
51139

> <i_f3d_flags>
0

> <s_epik_input>
W0NIM11bQ0hdKFtDSDNdKW4xW2NIXWMoW2NIXVtjSF1jMT1PKS1jKFtjSF1bY0hdbjIpYyhjMjMpW2NIXWMoW25IXTMpW0NIXTRbQ0gyXVtDSDJdTihbQ0gyXVtDSDJdNClbQ0gyXVtDSF0oRilG

> <s_epik_cmdline>
J2VwaWtfcHl0aG9uJywgJy1waHQnLCAnMi4wJywgJy1waCcsICc3LjAnLCAnLXRuJywgJzgnLCAnLW1hJywgJzIwMCcsICctaW1hZScsICc8aW5maWxlLm1hZT4nLCAnLW9tYWUnLCAnPG91dGZpbGUubWFlPic=

> <r_epik_Ionization_Penalty>
  0.5871

> <r_epik_Ionization_Penalty_Charging>
  0.5860

> <r_epik_Ionization_Penalty_Neutral>
  0.0011

> <r_epik_State_Penalty>
  0.5760

> <r_epik_Charging_Adjusted_Penalty>
1.16199

> <i_epik_Tot_Q>
1

> <i_epik_Tot_abs_Q>
1

> <s_lp_Force_Field>
OPLS3e

> <r_lp_Energy>
56.2912

> <b_lp_Chiralities_Consistent>
1

> <s_lp_Variant>
/home/yujie/leadopt/data/result/selection/CDK9/lig_36.sdf:1-2

> <s_i_glide_gridfile>
glide-grid_CDK9

> <i_i_glide_lignum>
34

> <i_i_glide_rotatable_bonds>
5

> <r_i_docking_score>
-8.53209044996091

> <r_i_glide_ligand_efficiency>
-0.294210015515893

> <r_i_glide_ligand_efficiency_sa>
-0.9039063799402

> <r_i_glide_ligand_efficiency_ln>
-1.95363235789487

> <r_i_glide_gscore>
-9.10809044996091

> <r_i_glide_lipo>
-2.7115867397007

> <r_i_glide_hbond>
-0.556608507238288

> <r_i_glide_metal>
0

> <r_i_glide_rewards>
-2.26756217301566

> <r_i_glide_evdw>
-42.7135238647461

> <r_i_glide_ecoul>
-10.7615232467651

> <r_i_glide_erotb>
0.255553537868189

> <r_i_glide_esite>
-0.0779818876223715

> <r_i_glide_emodel>
-67.6256753989631

> <r_i_glide_energy>
-53.4750471115112

> <r_i_glide_einternal>
1.86477959156036

> <i_i_glide_confnum>
11

> <i_i_glide_posenum>
231

> <r_i_glide_eff_state_penalty>
0.576

> <r_lp_tautomer_probability>
0.999998

> <s_m_job_name>
glide-dock_SP_all

> <r_glide_shape_similarity>
0.794827938079834

> <s_m_subgroup_title>
glide-dock_SP_all_lib1

> <s_m_subgroupid>
glide-dock_SP_all_lib1

> <b_m_subgroup_collapsed>
0

$$$$
