/home/yujie/leadopt/data/result/selection/CDK9/lig_34.sdf:1
                    3D
 Schrodinger Suite 2021-2.
 60 63  0  0  1  0            999 V2000
  -41.8592  -35.1136   -0.2527 C   0  0  0  0  0  0
  -41.7177  -34.4388   -1.6517 C   0  0  0  0  0  0
  -43.0618  -34.4570   -2.4235 C   0  0  0  0  0  0
  -40.6385  -34.9955   -2.5078 N   0  0  0  0  0  0
  -40.4181  -36.3909   -2.4454 C   0  0  0  0  0  0
  -39.5703  -37.0344   -3.2650 C   0  0  0  0  0  0
  -38.8447  -36.2294   -4.2356 C   0  0  0  0  0  0
  -39.0597  -34.9019   -4.3348 C   0  0  0  0  0  0
  -39.9963  -34.2088   -3.4477 C   0  0  0  0  0  0
  -40.1921  -32.9953   -3.5693 O   0  0  0  0  0  0
  -39.4007  -38.4985   -3.2057 C   0  0  0  0  0  0
  -38.1048  -39.0521   -3.3156 C   0  0  0  0  0  0
  -37.9604  -40.4571   -3.2614 C   0  0  0  0  0  0
  -38.9833  -41.3399   -3.1384 N   0  0  0  0  0  0
  -40.2149  -40.7681   -3.0589 C   0  0  0  0  0  0
  -40.5123  -39.3712   -3.0724 C   0  0  0  0  0  0
  -41.9432  -39.2368   -2.9953 C   0  0  0  0  0  0
  -42.4565  -40.5050   -2.8809 C   0  0  0  0  0  0
  -41.4231  -41.4305   -2.9256 N   0  0  0  0  0  0
  -43.8809  -40.8738   -2.6187 C   0  0  1  0  0  0
  -44.5231  -41.8760   -3.5986 C   0  0  0  0  0  0
  -46.0216  -42.0659   -3.2653 C   0  0  0  0  0  0
  -46.2016  -42.5259   -1.8553 N   0  3  1  0  0  0
  -45.5505  -41.6055   -0.8716 C   0  0  0  0  0  0
  -44.0632  -41.3870   -1.1829 C   0  0  0  0  0  0
  -47.6402  -42.7615   -1.5138 C   0  0  0  0  0  0
  -47.8200  -43.8701   -0.4466 C   0  0  0  0  0  0
  -47.9863  -45.0395   -0.8139 O   0  0  0  0  0  0
  -47.7950  -43.4991    0.8540 N   0  0  0  0  0  0
  -47.9828  -44.4215    1.9772 C   0  0  0  0  0  0
  -41.5401  -42.4348   -2.8108 H   0  0  0  0  0  0
  -42.6023  -34.5630    0.3150 H   0  0  0  0  0  0
  -42.2435  -36.1317   -0.2988 H   0  0  0  0  0  0
  -40.9276  -35.1067    0.3113 H   0  0  0  0  0  0
  -41.4750  -33.3898   -1.4552 H   0  0  0  0  0  0
  -43.8459  -33.9813   -1.8340 H   0  0  0  0  0  0
  -42.9823  -33.9219   -3.3721 H   0  0  0  0  0  0
  -43.3783  -35.4804   -2.6366 H   0  0  0  0  0  0
  -40.9932  -36.9324   -1.7159 H   0  0  0  0  0  0
  -38.1425  -36.7047   -4.9086 H   0  0  0  0  0  0
  -38.5070  -34.3358   -5.0739 H   0  0  0  0  0  0
  -37.2367  -38.4099   -3.4157 H   0  0  0  0  0  0
  -36.9730  -40.8785   -3.3214 H   0  0  0  0  0  0
  -42.5041  -38.3097   -2.9851 H   0  0  0  0  0  0
  -44.4619  -39.9516   -2.7027 H   0  0  0  0  0  0
  -44.0010  -42.8315   -3.5657 H   0  0  0  0  0  0
  -44.4603  -41.5001   -4.6160 H   0  0  0  0  0  0
  -46.4641  -42.7962   -3.9461 H   0  0  0  0  0  0
  -46.5587  -41.1273   -3.4144 H   0  0  0  0  0  0
  -46.0701  -40.6415   -0.8659 H   0  0  0  0  0  0
  -45.6296  -42.0077    0.1415 H   0  0  0  0  0  0
  -43.6495  -40.6630   -0.4766 H   0  0  0  0  0  0
  -43.5058  -42.3189   -1.0348 H   0  0  0  0  0  0
  -48.1869  -43.0824   -2.4027 H   0  0  0  0  0  0
  -48.1078  -41.8335   -1.1735 H   0  0  0  0  0  0
  -47.6290  -42.5036    1.0881 H   0  0  0  0  0  0
  -47.8766  -43.8948    2.9264 H   0  0  0  0  0  0
  -47.2363  -45.2108    1.9527 H   0  0  0  0  0  0
  -48.9770  -44.8783    1.9434 H   0  0  0  0  0  0
  -45.7166  -43.4184   -1.7941 H   0  0  0  0  0  0
  1  2  1  0  0  0
  1 32  1  0  0  0
  1 33  1  0  0  0
  1 34  1  0  0  0
  2  3  1  0  0  0
  2  4  1  0  0  0
  2 35  1  0  0  0
  3 36  1  0  0  0
  3 37  1  0  0  0
  3 38  1  0  0  0
  4  9  1  0  0  0
  4  5  1  0  0  0
  5  6  2  0  0  0
  5 39  1  0  0  0
  6  7  1  0  0  0
  6 11  1  0  0  0
  7  8  2  0  0  0
  7 40  1  0  0  0
  8  9  1  0  0  0
  8 41  1  0  0  0
  9 10  2  0  0  0
 11 16  1  0  0  0
 11 12  2  0  0  0
 12 13  1  0  0  0
 12 42  1  0  0  0
 13 14  2  0  0  0
 13 43  1  0  0  0
 14 15  1  0  0  0
 15 19  1  0  0  0
 15 16  2  0  0  0
 16 17  1  0  0  0
 17 18  2  0  0  0
 17 44  1  0  0  0
 18 19  1  0  0  0
 18 20  1  0  0  0
 19 31  1  0  0  0
 20 25  1  0  0  0
 20 21  1  0  0  0
 20 45  1  0  0  0
 21 22  1  0  0  0
 21 46  1  0  0  0
 21 47  1  0  0  0
 22 23  1  0  0  0
 22 48  1  0  0  0
 22 49  1  0  0  0
 23 24  1  0  0  0
 23 26  1  0  0  0
 23 60  1  0  0  0
 24 25  1  0  0  0
 24 50  1  0  0  0
 24 51  1  0  0  0
 25 52  1  0  0  0
 25 53  1  0  0  0
 26 27  1  0  0  0
 26 54  1  0  0  0
 26 55  1  0  0  0
 27 28  2  0  0  0
 27 29  1  0  0  0
 29 30  1  0  0  0
 29 56  1  0  0  0
 30 57  1  0  0  0
 30 58  1  0  0  0
 30 59  1  0  0  0
M  CHG  1  23   1
M  END
> <s_m_entry_id>
229

> <s_m_entry_name>
CDK9_lig_34.1

> <s_m_Source_Path>
C:\Users\yujiethinkpad\Desktop\selection\selection\CDK9_pose

> <s_m_Source_File>
CDK9_lig_34.sdf

> <i_m_Source_File_Index>
1

> <i_lp_mmshare_version>
51139

> <i_f3d_flags>
0

> <s_epik_input>
W0NIM11bQ0hdKFtDSDNdKW4xW2NIXWMoW2NIXVtjSF1jMT1PKS1jKFtjSF1bY0hdbjIpYyhjMjMpW2NIXWMoW25IXTMpW0NIXTRbQ0gyXVtDSDJdTihbQ0gyXVtDSDJdNClbQ0gyXUMoPU8pW05IXVtDSDNd

> <s_epik_cmdline>
J2VwaWtfcHl0aG9uJywgJy1waHQnLCAnMi4wJywgJy1waCcsICc3LjAnLCAnLXRuJywgJzgnLCAnLW1hJywgJzIwMCcsICctaW1hZScsICc8aW5maWxlLm1hZT4nLCAnLW9tYWUnLCAnPG91dGZpbGUubWFlPic=

> <r_epik_Ionization_Penalty>
  0.0792

> <r_epik_Ionization_Penalty_Charging>
  0.0781

> <r_epik_Ionization_Penalty_Neutral>
  0.0011

> <r_epik_State_Penalty>
  0.0690

> <r_epik_Charging_Adjusted_Penalty>
0.147047

> <i_epik_Tot_Q>
1

> <i_epik_Tot_abs_Q>
1

> <s_lp_Force_Field>
OPLS3e

> <r_lp_Energy>
58.3075

> <b_lp_Chiralities_Consistent>
1

> <s_lp_Variant>
/home/yujie/leadopt/data/result/selection/CDK9/lig_34.sdf:1-1

> <s_i_glide_gridfile>
glide-grid_CDK9

> <i_i_glide_lignum>
32

> <i_i_glide_rotatable_bonds>
6

> <r_i_docking_score>
-9.7434273559555

> <r_i_glide_ligand_efficiency>
-0.324780911865183

> <r_i_glide_ligand_efficiency_sa>
-1.0091698055167

> <r_i_glide_ligand_efficiency_ln>
-2.21381285841713

> <r_i_glide_gscore>
-9.8124273559555

> <r_i_glide_lipo>
-2.83514892772371

> <r_i_glide_hbond>
-0.666561770800245

> <r_i_glide_metal>
0

> <r_i_glide_rewards>
-2.20222783548304

> <r_i_glide_evdw>
-47.183765411377

> <r_i_glide_ecoul>
-13.0968036651611

> <r_i_glide_erotb>
0.330224485657351

> <r_i_glide_esite>
-0.115004487262848

> <r_i_glide_emodel>
-75.5760087164661

> <r_i_glide_energy>
-60.2805690765381

> <r_i_glide_einternal>
4.00598621368408

> <i_i_glide_confnum>
11

> <i_i_glide_posenum>
140

> <r_i_glide_eff_state_penalty>
0.069

> <r_lp_tautomer_probability>
0.999998

> <s_m_job_name>
glide-dock_SP_all

> <r_glide_shape_similarity>
0.758331418037415

> <s_m_subgroup_title>
glide-dock_SP_all_lib1

> <s_m_subgroupid>
glide-dock_SP_all_lib1

> <b_m_subgroup_collapsed>
0

$$$$
