/home/yujie/leadopt/data/result/selection/CDK9/lig_26.sdf:1
                    3D
 Schrodinger Suite 2021-2.
 63 66  0  0  1  0            999 V2000
  -49.2281  -41.3210   -6.8378 C   0  0  0  0  0  0
  -48.4930  -41.9460   -5.7221 N   0  0  0  0  0  0
  -47.6428  -43.1076   -6.0485 C   0  0  0  0  0  0
  -48.6175  -41.4424   -4.4679 C   0  0  0  0  0  0
  -49.2849  -40.4316   -4.2230 O   0  0  0  0  0  0
  -47.8937  -42.1601   -3.3122 C   0  0  0  0  0  0
  -46.4795  -41.7560   -3.2606 N   0  0  1  0  0  0
  -46.2933  -40.5299   -2.4721 C   0  0  0  0  0  0
  -44.8679  -39.9890   -2.7033 C   0  0  0  0  0  0
  -43.7858  -41.0413   -2.3919 C   0  0  0  0  0  0
  -44.1534  -42.3784   -3.0748 C   0  0  0  0  0  0
  -45.5943  -42.8053   -2.7555 C   0  0  0  0  0  0
  -42.4069  -40.5667   -2.7557 C   0  0  0  0  0  0
  -41.9259  -39.2961   -2.9777 C   0  0  0  0  0  0
  -40.4845  -39.3804   -3.1389 C   0  0  0  0  0  0
  -39.3512  -38.5157   -3.3477 C   0  0  0  0  0  0
  -38.0679  -39.1198   -3.3566 C   0  0  0  0  0  0
  -37.9280  -40.5117   -3.2359 C   0  0  0  0  0  0
  -38.9550  -41.3724   -3.1085 N   0  0  0  0  0  0
  -40.1770  -40.7789   -3.0545 C   0  0  0  0  0  0
  -41.3566  -41.4565   -2.8423 N   0  0  0  0  0  0
  -39.4181  -37.0286   -3.5562 C   0  0  0  0  0  0
  -38.2460  -36.2036   -3.8491 C   0  0  0  0  0  0
  -38.3118  -34.8589   -3.9684 C   0  0  0  0  0  0
  -39.5636  -34.1305   -3.7757 C   0  0  0  0  0  0
  -39.6308  -32.9015   -3.8544 O   0  0  0  0  0  0
  -40.6346  -34.9191   -3.4892 N   0  0  0  0  0  0
  -40.5611  -36.3312   -3.4838 C   0  0  0  0  0  0
  -41.8808  -34.3510   -2.9529 C   0  0  0  0  0  0
  -41.9070  -34.5190   -1.4108 C   0  0  0  0  0  0
  -41.5166  -35.8505   -1.0705 O   0  0  0  0  0  0
  -41.9681  -36.3047    0.1704 C   0  0  0  0  0  0
  -41.4587  -42.4574   -2.6851 H   0  0  0  0  0  0
  -50.2940  -41.2576   -6.6109 H   0  0  0  0  0  0
  -49.1254  -41.8722   -7.7749 H   0  0  0  0  0  0
  -48.8664  -40.3064   -7.0037 H   0  0  0  0  0  0
  -48.0360  -44.0141   -5.5926 H   0  0  0  0  0  0
  -47.5910  -43.2914   -7.1197 H   0  0  0  0  0  0
  -46.6163  -42.9576   -5.7064 H   0  0  0  0  0  0
  -48.3922  -41.9404   -2.3674 H   0  0  0  0  0  0
  -47.9902  -43.2368   -3.4417 H   0  0  0  0  0  0
  -47.0151  -39.7664   -2.7699 H   0  0  0  0  0  0
  -46.4635  -40.7233   -1.4088 H   0  0  0  0  0  0
  -44.7831  -39.6715   -3.7432 H   0  0  0  0  0  0
  -44.7124  -39.0974   -2.0950 H   0  0  0  0  0  0
  -43.7999  -41.2125   -1.3154 H   0  0  0  0  0  0
  -43.4754  -43.1646   -2.7493 H   0  0  0  0  0  0
  -44.0253  -42.2900   -4.1561 H   0  0  0  0  0  0
  -45.7438  -42.9667   -1.6860 H   0  0  0  0  0  0
  -45.7993  -43.7543   -3.2539 H   0  0  0  0  0  0
  -42.5443  -38.4177   -2.9551 H   0  0  0  0  0  0
  -37.1551  -38.5602   -3.4537 H   0  0  0  0  0  0
  -36.9417  -40.9488   -3.2361 H   0  0  0  0  0  0
  -37.2820  -36.6452   -4.0380 H   0  0  0  0  0  0
  -37.4175  -34.2999   -4.2014 H   0  0  0  0  0  0
  -41.5106  -36.7802   -3.2857 H   0  0  0  0  0  0
  -42.0143  -33.2997   -3.2165 H   0  0  0  0  0  0
  -42.7353  -34.8721   -3.3920 H   0  0  0  0  0  0
  -41.2287  -33.8127   -0.9445 H   0  0  0  0  0  0
  -42.9089  -34.2886   -1.0448 H   0  0  0  0  0  0
  -41.6529  -37.3363    0.3320 H   0  0  0  0  0  0
  -41.5401  -35.6745    0.9450 H   0  0  0  0  0  0
  -43.0581  -36.2614    0.2159 H   0  0  0  0  0  0
  1  2  1  0  0  0
  1 34  1  0  0  0
  1 35  1  0  0  0
  1 36  1  0  0  0
  2  3  1  0  0  0
  2  4  1  0  0  0
  3 37  1  0  0  0
  3 38  1  0  0  0
  3 39  1  0  0  0
  4  5  2  0  0  0
  4  6  1  0  0  0
  6  7  1  0  0  0
  6 40  1  0  0  0
  6 41  1  0  0  0
  7 12  1  0  0  0
  7  8  1  0  0  0
  8  9  1  0  0  0
  8 42  1  0  0  0
  8 43  1  0  0  0
  9 10  1  0  0  0
  9 44  1  0  0  0
  9 45  1  0  0  0
 10 11  1  0  0  0
 10 13  1  0  0  0
 10 46  1  0  0  0
 11 12  1  0  0  0
 11 47  1  0  0  0
 11 48  1  0  0  0
 12 49  1  0  0  0
 12 50  1  0  0  0
 13 21  1  0  0  0
 13 14  2  0  0  0
 14 15  1  0  0  0
 14 51  1  0  0  0
 15 20  2  0  0  0
 15 16  1  0  0  0
 16 17  2  0  0  0
 16 22  1  0  0  0
 17 18  1  0  0  0
 17 52  1  0  0  0
 18 19  2  0  0  0
 18 53  1  0  0  0
 19 20  1  0  0  0
 20 21  1  0  0  0
 21 33  1  0  0  0
 22 28  2  0  0  0
 22 23  1  0  0  0
 23 24  2  0  0  0
 23 54  1  0  0  0
 24 25  1  0  0  0
 24 55  1  0  0  0
 25 26  2  0  0  0
 25 27  1  0  0  0
 27 28  1  0  0  0
 27 29  1  0  0  0
 28 56  1  0  0  0
 29 30  1  0  0  0
 29 57  1  0  0  0
 29 58  1  0  0  0
 30 31  1  0  0  0
 30 59  1  0  0  0
 30 60  1  0  0  0
 31 32  1  0  0  0
 32 61  1  0  0  0
 32 62  1  0  0  0
 32 63  1  0  0  0
M  END
> <s_m_entry_id>
256

> <s_m_entry_name>
CDK9_lig_26.1

> <s_m_Source_Path>
C:\Users\yujiethinkpad\Desktop\selection\selection\CDK9_pose

> <s_m_Source_File>
CDK9_lig_26.sdf

> <i_m_Source_File_Index>
1

> <i_lp_mmshare_version>
51139

> <i_f3d_flags>
0

> <s_epik_input>
W0NIM11OKFtDSDNdKUMoPU8pW0NIMl1OMVtDSDJdW0NIMl1bQ0hdKFtDSDJdW0NIMl0xKWMoW2NIXTIpW25IXWMoYzIzKW5bY0hdW2NIXWMzLWM0W2NIXVtjSF1jKD1PKW4oW2NIXTQpW0NIMl1bQ0gyXU9bQ0gzXQ==

> <s_epik_cmdline>
J2VwaWtfcHl0aG9uJywgJy1waHQnLCAnMi4wJywgJy1waCcsICc3LjAnLCAnLXRuJywgJzgnLCAnLW1hJywgJzIwMCcsICctaW1hZScsICc8aW5maWxlLm1hZT4nLCAnLW9tYWUnLCAnPG91dGZpbGUubWFlPic=

> <r_epik_Ionization_Penalty>
  1.2409

> <r_epik_Ionization_Penalty_Charging>
  0.0000

> <r_epik_Ionization_Penalty_Neutral>
  1.2409

> <r_epik_State_Penalty>
  1.3083

> <r_epik_Charging_Adjusted_Penalty>
1.30828

> <i_epik_Tot_Q>
0

> <i_epik_Tot_abs_Q>
0

> <s_lp_Force_Field>
OPLS3e

> <r_lp_Energy>
56.8689

> <b_lp_Chiralities_Consistent>
1

> <s_lp_Variant>
/home/yujie/leadopt/data/result/selection/CDK9/lig_26.sdf:1-2

> <s_i_glide_gridfile>
glide-grid_CDK9

> <i_i_glide_lignum>
24

> <i_i_glide_rotatable_bonds>
8

> <r_i_docking_score>
-8.10267165034786

> <r_i_glide_ligand_efficiency>
-0.253208489073371

> <r_i_glide_ligand_efficiency_sa>
-0.803886842916008

> <r_i_glide_ligand_efficiency_ln>
-1.8144090530002

> <r_i_glide_gscore>
-9.41097165034786

> <r_i_glide_lipo>
-2.9288080258932

> <r_i_glide_hbond>
-0.731398485330919

> <r_i_glide_metal>
0

> <r_i_glide_rewards>
-1.99923321052266

> <r_i_glide_evdw>
-45.9075775146484

> <r_i_glide_ecoul>
-12.6244773864746

> <r_i_glide_erotb>
0.437518555102526

> <r_i_glide_esite>
0

> <r_i_glide_emodel>
-67.8255817353785

> <r_i_glide_energy>
-58.532054901123

> <r_i_glide_einternal>
5.58761548995972

> <i_i_glide_confnum>
89

> <i_i_glide_posenum>
229

> <r_i_glide_eff_state_penalty>
1.3083

> <r_lp_tautomer_probability>
0.999998

> <s_m_job_name>
glide-dock_SP_all

> <r_glide_shape_similarity>
0.77843701839447

> <s_m_subgroup_title>
glide-dock_SP_all_lib1

> <s_m_subgroupid>
glide-dock_SP_all_lib1

> <b_m_subgroup_collapsed>
0

$$$$
