/home/yujie/leadopt/data/result/selection/CDK9/lig_30.sdf:1
                    3D
 Schrodinger Suite 2021-2.
 74 78  0  0  1  0            999 V2000
  -48.4274  -46.5592   -0.7588 C   0  0  0  0  0  0
  -48.2606  -45.1022   -0.6176 N   0  0  0  0  0  0
  -48.5270  -44.5515    0.7230 C   0  0  0  0  0  0
  -47.8363  -44.3637   -1.6849 C   0  0  0  0  0  0
  -47.6267  -44.8675   -2.7951 O   0  0  0  0  0  0
  -47.5844  -42.8444   -1.5474 C   0  0  0  0  0  0
  -46.1722  -42.5161   -1.8948 N   0  3  2  0  0  0
  -45.5572  -41.5807   -0.9105 C   0  0  0  0  0  0
  -44.0769  -41.3396   -1.2144 C   0  0  0  0  0  0
  -43.8907  -40.8564   -2.6563 C   0  0  2  0  0  0
  -44.5075  -41.8759   -3.6307 C   0  0  0  0  0  0
  -46.0013  -42.0728   -3.3062 C   0  0  0  0  0  0
  -42.4686  -40.4935   -2.9049 C   0  0  0  0  0  0
  -41.9570  -39.2313   -3.0545 C   0  0  0  0  0  0
  -40.5218  -39.3508   -3.0839 C   0  0  0  0  0  0
  -39.3927  -38.4808   -3.1721 C   0  0  0  0  0  0
  -38.1099  -39.0753   -3.2377 C   0  0  0  0  0  0
  -37.9765  -40.4758   -3.2030 C   0  0  0  0  0  0
  -39.0062  -41.3423   -3.1082 N   0  0  0  0  0  0
  -40.2302  -40.7517   -3.0548 C   0  0  0  0  0  0
  -41.4334  -41.4136   -2.9281 N   0  0  0  0  0  0
  -39.5007  -36.9970   -3.2744 C   0  0  0  0  0  0
  -38.4379  -36.2207   -3.8955 C   0  0  0  0  0  0
  -38.5220  -34.8871   -4.0606 C   0  0  0  0  0  0
  -39.7069  -34.1423   -3.6548 C   0  0  0  0  0  0
  -39.7949  -32.9260   -3.8338 O   0  0  0  0  0  0
  -40.7225  -34.9054   -3.1562 N   0  0  0  0  0  0
  -40.5803  -36.2849   -2.8936 C   0  0  0  0  0  0
  -42.1063  -34.4179   -3.2138 C   0  0  0  0  0  0
  -42.7933  -34.2406   -1.8374 C   0  0  0  0  0  0
  -44.1524  -34.9954   -1.6942 C   0  0  0  0  0  0
  -44.8970  -34.5798   -0.3977 C   0  0  0  0  0  0
  -46.2787  -35.2750   -0.2746 C   0  0  0  0  0  0
  -47.0697  -35.0994   -1.4522 O   0  0  0  0  0  0
  -46.4475  -35.6089   -2.6256 C   0  0  0  0  0  0
  -45.1387  -34.8344   -2.8894 C   0  0  0  0  0  0
  -41.5603  -42.4174   -2.8126 H   0  0  0  0  0  0
  -48.9814  -46.7989   -1.6679 H   0  0  0  0  0  0
  -48.9639  -47.0139    0.0724 H   0  0  0  0  0  0
  -47.4483  -47.0366   -0.8268 H   0  0  0  0  0  0
  -47.6242  -44.1069    1.1434 H   0  0  0  0  0  0
  -49.3089  -43.7934    0.6796 H   0  0  0  0  0  0
  -48.8651  -45.3074    1.4323 H   0  0  0  0  0  0
  -48.2744  -42.3161   -2.2070 H   0  0  0  0  0  0
  -47.8164  -42.4782   -0.5455 H   0  0  0  0  0  0
  -46.1047  -40.6349   -0.8982 H   0  0  0  0  0  0
  -45.6333  -42.0019    0.0925 H   0  0  0  0  0  0
  -43.6809  -40.5941   -0.5235 H   0  0  0  0  0  0
  -43.5030  -42.2536   -1.0455 H   0  0  0  0  0  0
  -44.4637  -39.9334   -2.7629 H   0  0  0  0  0  0
  -43.9727  -42.8243   -3.5779 H   0  0  0  0  0  0
  -44.4285  -41.5105   -4.6545 H   0  0  0  0  0  0
  -46.4313  -42.8085   -3.9871 H   0  0  0  0  0  0
  -46.5389  -41.1376   -3.4706 H   0  0  0  0  0  0
  -42.5397  -38.3271   -3.0892 H   0  0  0  0  0  0
  -37.2050  -38.4917   -3.2888 H   0  0  0  0  0  0
  -36.9926  -40.9198   -3.2373 H   0  0  0  0  0  0
  -37.5473  -36.6971   -4.2641 H   0  0  0  0  0  0
  -37.7088  -34.3607   -4.5391 H   0  0  0  0  0  0
  -41.4460  -36.7132   -2.4272 H   0  0  0  0  0  0
  -42.2089  -33.5048   -3.8066 H   0  0  0  0  0  0
  -42.6277  -35.1667   -3.8083 H   0  0  0  0  0  0
  -42.1275  -34.5538   -1.0329 H   0  0  0  0  0  0
  -42.9475  -33.1726   -1.6758 H   0  0  0  0  0  0
  -43.9177  -36.0565   -1.6112 H   0  0  0  0  0  0
  -44.2868  -34.8083    0.4793 H   0  0  0  0  0  0
  -45.0501  -33.4980   -0.3975 H   0  0  0  0  0  0
  -46.1602  -36.3375   -0.0611 H   0  0  0  0  0  0
  -46.8468  -34.8374    0.5438 H   0  0  0  0  0  0
  -46.2586  -36.6783   -2.5127 H   0  0  0  0  0  0
  -47.1398  -35.4966   -3.4583 H   0  0  0  0  0  0
  -45.3504  -33.7752   -3.0462 H   0  0  0  0  0  0
  -44.7209  -35.2122   -3.8191 H   0  0  0  0  0  0
  -45.6457  -43.3805   -1.8183 H   0  0  0  0  0  0
  1  2  1  0  0  0
  1 38  1  0  0  0
  1 39  1  0  0  0
  1 40  1  0  0  0
  2  3  1  0  0  0
  2  4  1  0  0  0
  3 41  1  0  0  0
  3 42  1  0  0  0
  3 43  1  0  0  0
  4  5  2  0  0  0
  4  6  1  0  0  0
  6  7  1  0  0  0
  6 44  1  0  0  0
  6 45  1  0  0  0
  7 12  1  0  0  0
  7  8  1  0  0  0
  7 74  1  0  0  0
  8  9  1  0  0  0
  8 46  1  0  0  0
  8 47  1  0  0  0
  9 10  1  0  0  0
  9 48  1  0  0  0
  9 49  1  0  0  0
 10 11  1  0  0  0
 10 13  1  0  0  0
 10 50  1  0  0  0
 11 12  1  0  0  0
 11 51  1  0  0  0
 11 52  1  0  0  0
 12 53  1  0  0  0
 12 54  1  0  0  0
 13 21  1  0  0  0
 13 14  2  0  0  0
 14 15  1  0  0  0
 14 55  1  0  0  0
 15 20  2  0  0  0
 15 16  1  0  0  0
 16 17  2  0  0  0
 16 22  1  0  0  0
 17 18  1  0  0  0
 17 56  1  0  0  0
 18 19  2  0  0  0
 18 57  1  0  0  0
 19 20  1  0  0  0
 20 21  1  0  0  0
 21 37  1  0  0  0
 22 28  2  0  0  0
 22 23  1  0  0  0
 23 24  2  0  0  0
 23 58  1  0  0  0
 24 25  1  0  0  0
 24 59  1  0  0  0
 25 26  2  0  0  0
 25 27  1  0  0  0
 27 28  1  0  0  0
 27 29  1  0  0  0
 28 60  1  0  0  0
 29 30  1  0  0  0
 29 61  1  0  0  0
 29 62  1  0  0  0
 30 31  1  0  0  0
 30 63  1  0  0  0
 30 64  1  0  0  0
 31 36  1  0  0  0
 31 32  1  0  0  0
 31 65  1  0  0  0
 32 33  1  0  0  0
 32 66  1  0  0  0
 32 67  1  0  0  0
 33 34  1  0  0  0
 33 68  1  0  0  0
 33 69  1  0  0  0
 34 35  1  0  0  0
 35 36  1  0  0  0
 35 70  1  0  0  0
 35 71  1  0  0  0
 36 72  1  0  0  0
 36 73  1  0  0  0
M  CHG  1   7   1
M  END
> <s_m_entry_id>
236

> <s_m_entry_name>
CDK9_lig_30.1

> <s_m_Source_Path>
C:\Users\yujiethinkpad\Desktop\selection\selection\CDK9_pose

> <s_m_Source_File>
CDK9_lig_30.sdf

> <i_m_Source_File_Index>
1

> <i_lp_mmshare_version>
51139

> <i_f3d_flags>
0

> <s_epik_input>
W0NIM11OKFtDSDNdKUMoPU8pW0NIMl1OMVtDSDJdW0NIMl1bQ0hdKFtDSDJdW0NIMl0xKWMoW2NIXTIpW25IXWMoYzIzKW5bY0hdW2NIXWMzLWM0W2NIXVtjSF1jKD1PKW4oW2NIXTQpW0NIMl1bQ0gyXVtDSF01W0NIMl1bQ0gyXU9bQ0gyXVtDSDJdNQ==

> <s_epik_cmdline>
J2VwaWtfcHl0aG9uJywgJy1waHQnLCAnMi4wJywgJy1waCcsICc3LjAnLCAnLXRuJywgJzgnLCAnLW1hJywgJzIwMCcsICctaW1hZScsICc8aW5maWxlLm1hZT4nLCAnLW9tYWUnLCAnPG91dGZpbGUubWFlPic=

> <r_epik_Ionization_Penalty>
  0.0792

> <r_epik_Ionization_Penalty_Charging>
  0.0781

> <r_epik_Ionization_Penalty_Neutral>
  0.0011

> <r_epik_State_Penalty>
  0.0690

> <r_epik_Charging_Adjusted_Penalty>
0.147046

> <i_epik_Tot_Q>
1

> <i_epik_Tot_abs_Q>
1

> <s_lp_Force_Field>
OPLS3e

> <r_lp_Energy>
63.572

> <b_lp_Chiralities_Consistent>
1

> <s_lp_Variant>
/home/yujie/leadopt/data/result/selection/CDK9/lig_30.sdf:1-1

> <s_i_glide_gridfile>
glide-grid_CDK9

> <i_i_glide_lignum>
28

> <i_i_glide_rotatable_bonds>
8

> <r_i_docking_score>
-9.16134295103213

> <r_i_glide_ligand_efficiency>
-0.254481748639781

> <r_i_glide_ligand_efficiency_sa>
-0.840280219176327

> <r_i_glide_ligand_efficiency_ln>
-1.99875752103208

> <r_i_glide_gscore>
-9.23034295103213

> <r_i_glide_lipo>
-3.07940614758592

> <r_i_glide_hbond>
-0.693952789227362

> <r_i_glide_metal>
0

> <r_i_glide_rewards>
-1.58899553025072

> <r_i_glide_evdw>
-51.9222640991211

> <r_i_glide_ecoul>
-11.1534109115601

> <r_i_glide_erotb>
0.411199710858802

> <r_i_glide_esite>
-0.0100633531368753

> <r_i_glide_emodel>
-61.3949867177369

> <r_i_glide_energy>
-63.0756750106812

> <r_i_glide_einternal>
6.99967193603516

> <i_i_glide_confnum>
152

> <i_i_glide_posenum>
393

> <r_i_glide_eff_state_penalty>
0.069

> <r_lp_tautomer_probability>
0.999998

> <s_m_job_name>
glide-dock_SP_all

> <r_glide_shape_similarity>
0.616637527942657

> <s_m_subgroup_title>
glide-dock_SP_all_lib1

> <s_m_subgroupid>
glide-dock_SP_all_lib1

> <b_m_subgroup_collapsed>
0

$$$$
