CDK91
                    3D
 Schrodinger Suite 2021-2.
 52 55  0  0  1  0            999 V2000
  -41.2440  -36.3195   -0.1967 C   0  0  0  0  0  0
  -40.7382  -37.0755   -1.2888 O   0  0  0  0  0  0
  -40.2285  -36.4039   -2.3812 C   0  0  0  0  0  0
  -40.2559  -34.9885   -2.5054 C   0  0  0  0  0  0
  -39.6651  -34.3564   -3.6159 C   0  0  0  0  0  0
  -39.0532  -35.1266   -4.6161 C   0  0  0  0  0  0
  -39.0438  -36.5267   -4.5144 C   0  0  0  0  0  0
  -39.6258  -37.1781   -3.4083 C   0  0  0  0  0  0
  -39.5320  -38.6476   -3.3221 C   0  0  0  0  0  0
  -38.2594  -39.2546   -3.4134 C   0  0  0  0  0  0
  -38.1387  -40.6524   -3.3136 C   0  0  0  0  0  0
  -39.1772  -41.4975   -3.1330 N   0  0  0  0  0  0
  -40.3881  -40.8802   -3.0537 C   0  0  0  0  0  0
  -40.6644  -39.4879   -3.1414 C   0  0  0  0  0  0
  -42.0916  -39.3268   -3.0130 C   0  0  0  0  0  0
  -42.6262  -40.5738   -2.7847 C   0  0  0  0  0  0
  -41.5940  -41.4990   -2.8304 N   0  0  0  0  0  0
  -44.0609  -40.9830   -2.5752 C   0  0  1  0  0  0
  -44.2247  -42.4173   -2.0360 C   0  0  0  0  0  0
  -45.7060  -42.8037   -1.9274 C   0  0  0  0  0  0
  -46.4622  -41.8665   -1.0571 N   0  3  1  0  0  0
  -46.3231  -40.4571   -1.5131 C   0  0  0  0  0  0
  -44.8438  -40.0361   -1.6427 C   0  0  0  0  0  0
  -47.8831  -42.2635   -0.8785 C   0  0  0  0  0  0
  -48.0493  -43.4649    0.0706 C   0  0  0  0  0  0
  -49.4206  -43.7785    0.1851 O   0  0  0  0  0  0
  -39.6710  -33.0066   -3.7263 F   0  0  0  0  0  0
  -41.7129  -42.4975   -2.6721 H   0  0  0  0  0  0
  -41.5732  -36.9981    0.5897 H   0  0  0  0  0  0
  -40.4772  -35.6709    0.2273 H   0  0  0  0  0  0
  -42.1057  -35.7172   -0.4922 H   0  0  0  0  0  0
  -40.7080  -34.3610   -1.7516 H   0  0  0  0  0  0
  -38.5829  -34.6393   -5.4529 H   0  0  0  0  0  0
  -38.5631  -37.1028   -5.2927 H   0  0  0  0  0  0
  -37.3740  -38.6502   -3.5471 H   0  0  0  0  0  0
  -37.1594  -41.0993   -3.3811 H   0  0  0  0  0  0
  -42.6196  -38.3839   -3.0469 H   0  0  0  0  0  0
  -44.5427  -40.9442   -3.5523 H   0  0  0  0  0  0
  -43.7411  -42.5081   -1.0604 H   0  0  0  0  0  0
  -43.7268  -43.1277   -2.6962 H   0  0  0  0  0  0
  -45.7871  -43.8169   -1.5407 H   0  0  0  0  0  0
  -46.1571  -42.8205   -2.9225 H   0  0  0  0  0  0
  -46.8287  -40.3359   -2.4733 H   0  0  0  0  0  0
  -46.8232  -39.7950   -0.8057 H   0  0  0  0  0  0
  -44.8009  -39.0145   -2.0231 H   0  0  0  0  0  0
  -44.3733  -40.0163   -0.6559 H   0  0  0  0  0  0
  -48.3383  -42.4694   -1.8509 H   0  0  0  0  0  0
  -48.4358  -41.4245   -0.4546 H   0  0  0  0  0  0
  -47.6593  -43.2280    1.0591 H   0  0  0  0  0  0
  -47.5262  -44.3499   -0.2899 H   0  0  0  0  0  0
  -49.5232  -44.4653    0.8277 H   0  0  0  0  0  0
  -46.0701  -41.8821   -0.1242 H   0  0  0  0  0  0
  1  2  1  0  0  0
  1 29  1  0  0  0
  1 30  1  0  0  0
  1 31  1  0  0  0
  2  3  1  0  0  0
  3  8  1  0  0  0
  3  4  2  0  0  0
  4  5  1  0  0  0
  4 32  1  0  0  0
  5  6  2  0  0  0
  5 27  1  0  0  0
  6  7  1  0  0  0
  6 33  1  0  0  0
  7  8  2  0  0  0
  7 34  1  0  0  0
  8  9  1  0  0  0
  9 14  1  0  0  0
  9 10  2  0  0  0
 10 11  1  0  0  0
 10 35  1  0  0  0
 11 12  2  0  0  0
 11 36  1  0  0  0
 12 13  1  0  0  0
 13 17  1  0  0  0
 13 14  2  0  0  0
 14 15  1  0  0  0
 15 16  2  0  0  0
 15 37  1  0  0  0
 16 17  1  0  0  0
 16 18  1  0  0  0
 17 28  1  0  0  0
 18 23  1  0  0  0
 18 19  1  0  0  0
 18 38  1  0  0  0
 19 20  1  0  0  0
 19 39  1  0  0  0
 19 40  1  0  0  0
 20 21  1  0  0  0
 20 41  1  0  0  0
 20 42  1  0  0  0
 21 22  1  0  0  0
 21 24  1  0  0  0
 21 52  1  0  0  0
 22 23  1  0  0  0
 22 43  1  0  0  0
 22 44  1  0  0  0
 23 45  1  0  0  0
 23 46  1  0  0  0
 24 25  1  0  0  0
 24 47  1  0  0  0
 24 48  1  0  0  0
 25 26  1  0  0  0
 25 49  1  0  0  0
 25 50  1  0  0  0
 26 51  1  0  0  0
M  CHG  1  21   1
M  END
> <s_m_entry_id>
274

> <s_m_entry_name>
CDK9_lig_16.1

> <s_m_Source_Path>
C:\Users\yujiethinkpad\Desktop\selection\selection\CDK9_pose

> <s_m_Source_File>
CDK9_lig_16.sdf

> <i_m_Source_File_Index>
1

> <i_lp_mmshare_version>
54117

> <i_f3d_flags>
0

> <s_epik_input>
W0NIM11PYzFbY0hdYyhGKVtjSF1bY0hdYzEtYyhbY0hdW2NIXW4yKWMoYzIzKVtjSF1jKFtuSF0zKVtDSF00W0NIMl1bQ0gyXU4oW0NIMl1bQ0gyXTQpW0NIMl1bQ0gyXVtPSF0=

> <s_epik_cmdline>
J2VwaWtfcHl0aG9uJywgJy1waCcsICc3LjAnLCAnLXRuJywgJzgnLCAnLW1hJywgJzUwMCcsICctaW1hZScsICc8aW5maWxlLm1hZT4nLCAnLW9tYWUnLCAnPG91dGZpbGUubWFlPic=

> <r_epik_Ionization_Penalty>
  0.0094

> <r_epik_Ionization_Penalty_Charging>
  0.0079

> <r_epik_Ionization_Penalty_Neutral>
  0.0015

> <r_epik_State_Penalty>
  0.0059

> <r_epik_Charging_Adjusted_Penalty>
0.0138082760642057

> <i_epik_Tot_Q>
1

> <i_epik_Tot_abs_Q>
1

> <s_lp_Force_Field>
S-OPLS

> <r_lp_Energy>
41.793581

> <b_lp_Chiralities_Consistent>
1

> <s_lp_Variant>
/home/yujie/leadopt/data/result/selection/CDK9/lig_16.sdf:1-1

> <s_i_glide_gridfile>
glide-grid_CDK9

> <i_i_glide_lignum>
1

> <i_i_glide_rotatable_bonds>
6

> <r_i_docking_score>
-9.87840233049934

> <r_i_glide_ligand_efficiency>
-0.365866752981457

> <r_i_glide_ligand_efficiency_sa>
-1.09760025773853

> <r_i_glide_ligand_efficiency_ln>
-2.29952920434977

> <r_i_glide_gscore>
-9.88430233049934

> <r_i_glide_lipo>
-3.17435953611761

> <r_i_glide_hbond>
-0.672720551365892

> <r_i_glide_metal>
0

> <r_i_glide_rewards>
-2.39683968966484

> <r_i_glide_evdw>
-41.109375

> <r_i_glide_ecoul>
-11.9450645446777

> <r_i_glide_erotb>
0.39364156052014

> <r_i_glide_esite>
-0.186795682169477

> <r_i_glide_emodel>
-90.4578503891048

> <r_i_glide_energy>
-53.0544395446777

> <r_i_glide_einternal>
2.40277647972107

> <i_i_glide_confnum>
66

> <i_i_glide_posenum>
159

> <r_i_glide_eff_state_penalty>
0.0059

> <r_lp_tautomer_probability>
0.999998432528457

> <s_m_job_name>
glide-dock_SP_16

> <r_glide_shape_similarity>
0.876758754253387

> <s_m_source_file>
ligprep_16.maegz

> <i_m_source_file_index>
1

> <i_f3d_flags>
0

> <s_m_subgroup_title>
glide-dock_SP_16_lib1

> <s_m_subgroupid>
glide-dock_SP_16_lib1

> <b_m_subgroup_collapsed>
0

$$$$
