/home/yujie/leadopt/data/result/selection/CDK9/lig_15.sdf:1
                    3D
 Schrodinger Suite 2021-2.
 48 51  0  0  1  0            999 V2000
  -47.4380  -42.9563   -1.6945 C   0  0  0  0  0  0
  -46.0314  -42.5939   -1.9431 N   0  3  2  0  0  0
  -45.5573  -41.5414   -1.0217 C   0  0  0  0  0  0
  -44.0966  -41.1989   -1.2651 C   0  0  0  0  0  0
  -43.8411  -40.8773   -2.7261 C   0  0  2  0  0  0
  -44.2934  -42.0669   -3.5660 C   0  0  0  0  0  0
  -45.7869  -42.2820   -3.3599 C   0  0  0  0  0  0
  -42.4358  -40.4827   -2.9156 C   0  0  0  0  0  0
  -41.9392  -39.2165   -3.0025 C   0  0  0  0  0  0
  -40.5238  -39.3394   -3.0698 C   0  0  0  0  0  0
  -39.4396  -38.4442   -3.1617 C   0  0  0  0  0  0
  -38.1562  -39.0020   -3.2670 C   0  0  0  0  0  0
  -37.9902  -40.3957   -3.2561 C   0  0  0  0  0  0
  -38.9908  -41.2868   -3.1502 N   0  0  0  0  0  0
  -40.2135  -40.7211   -3.0628 C   0  0  0  0  0  0
  -41.4005  -41.3875   -2.9472 N   0  0  0  0  0  0
  -39.6347  -36.9854   -3.2127 C   0  0  0  0  0  0
  -39.1389  -36.2868   -4.3245 C   0  0  0  0  0  0
  -39.3117  -34.9054   -4.4451 C   0  0  0  0  0  0
  -39.9938  -34.2036   -3.4535 C   0  0  0  0  0  0
  -40.4854  -34.8773   -2.3299 C   0  0  0  0  0  0
  -40.2980  -36.2702   -2.1901 C   0  0  0  0  0  0
  -40.7195  -36.9800   -1.0877 O   0  0  0  0  0  0
  -41.2521  -36.2743    0.0236 C   0  0  0  0  0  0
  -40.1710  -32.8720   -3.5858 F   0  0  0  0  0  0
  -41.5146  -42.3869   -2.8522 H   0  0  0  0  0  0
  -48.1087  -42.1222   -1.9125 H   0  0  0  0  0  0
  -47.7359  -43.8039   -2.3124 H   0  0  0  0  0  0
  -47.5844  -43.2451   -0.6530 H   0  0  0  0  0  0
  -45.6317  -41.8985    0.0058 H   0  0  0  0  0  0
  -46.1814  -40.6473   -1.1127 H   0  0  0  0  0  0
  -43.8161  -40.3473   -0.6448 H   0  0  0  0  0  0
  -43.4644  -42.0287   -0.9431 H   0  0  0  0  0  0
  -44.4568  -40.0200   -3.0010 H   0  0  0  0  0  0
  -43.7407  -42.9675   -3.2922 H   0  0  0  0  0  0
  -44.0935  -41.8995   -4.6225 H   0  0  0  0  0  0
  -46.1161  -43.1157   -3.9827 H   0  0  0  0  0  0
  -46.3605  -41.4026   -3.6649 H   0  0  0  0  0  0
  -42.4954  -38.2905   -2.9916 H   0  0  0  0  0  0
  -37.2914  -38.3579   -3.3556 H   0  0  0  0  0  0
  -36.9961  -40.8091   -3.3393 H   0  0  0  0  0  0
  -38.6256  -36.8234   -5.1097 H   0  0  0  0  0  0
  -38.9343  -34.3852   -5.3120 H   0  0  0  0  0  0
  -40.9950  -34.2932   -1.5766 H   0  0  0  0  0  0
  -41.4694  -36.9791    0.8264 H   0  0  0  0  0  0
  -40.5411  -35.5420    0.4110 H   0  0  0  0  0  0
  -42.1849  -35.7699   -0.2339 H   0  0  0  0  0  0
  -45.4694  -43.4114   -1.7431 H   0  0  0  0  0  0
  1  2  1  0  0  0
  1 27  1  0  0  0
  1 28  1  0  0  0
  1 29  1  0  0  0
  2  7  1  0  0  0
  2  3  1  0  0  0
  2 48  1  0  0  0
  3  4  1  0  0  0
  3 30  1  0  0  0
  3 31  1  0  0  0
  4  5  1  0  0  0
  4 32  1  0  0  0
  4 33  1  0  0  0
  5  6  1  0  0  0
  5  8  1  0  0  0
  5 34  1  0  0  0
  6  7  1  0  0  0
  6 35  1  0  0  0
  6 36  1  0  0  0
  7 37  1  0  0  0
  7 38  1  0  0  0
  8 16  1  0  0  0
  8  9  2  0  0  0
  9 10  1  0  0  0
  9 39  1  0  0  0
 10 15  2  0  0  0
 10 11  1  0  0  0
 11 12  2  0  0  0
 11 17  1  0  0  0
 12 13  1  0  0  0
 12 40  1  0  0  0
 13 14  2  0  0  0
 13 41  1  0  0  0
 14 15  1  0  0  0
 15 16  1  0  0  0
 16 26  1  0  0  0
 17 22  1  0  0  0
 17 18  2  0  0  0
 18 19  1  0  0  0
 18 42  1  0  0  0
 19 20  2  0  0  0
 19 43  1  0  0  0
 20 21  1  0  0  0
 20 25  1  0  0  0
 21 22  2  0  0  0
 21 44  1  0  0  0
 22 23  1  0  0  0
 23 24  1  0  0  0
 24 45  1  0  0  0
 24 46  1  0  0  0
 24 47  1  0  0  0
M  CHG  1   2   1
M  END
> <s_m_entry_id>
233

> <s_m_entry_name>
CDK9_lig_15.1

> <s_m_Source_Path>
C:\Users\yujiethinkpad\Desktop\selection\selection\CDK9_pose

> <s_m_Source_File>
CDK9_lig_15.sdf

> <i_m_Source_File_Index>
1

> <i_lp_mmshare_version>
51139

> <i_f3d_flags>
0

> <s_epik_input>
W0NIM11OMVtDSDJdW0NIMl1bQ0hdKFtDSDJdW0NIMl0xKWMoW2NIXTIpW25IXWMoYzIzKW5bY0hdW2NIXWMzLWM0W2NIXVtjSF1jKEYpW2NIXWM0T1tDSDNd

> <s_epik_cmdline>
J2VwaWtfcHl0aG9uJywgJy1waHQnLCAnMi4wJywgJy1waCcsICc3LjAnLCAnLXRuJywgJzgnLCAnLW1hJywgJzIwMCcsICctaW1hZScsICc8aW5maWxlLm1hZT4nLCAnLW9tYWUnLCAnPG91dGZpbGUubWFlPic=

> <r_epik_Ionization_Penalty>
  0.0037

> <r_epik_Ionization_Penalty_Charging>
  0.0022

> <r_epik_Ionization_Penalty_Neutral>
  0.0015

> <r_epik_State_Penalty>
  0.0000

> <r_epik_Charging_Adjusted_Penalty>
0.00215996

> <i_epik_Tot_Q>
1

> <i_epik_Tot_abs_Q>
1

> <s_lp_Force_Field>
OPLS3e

> <r_lp_Energy>
44.933

> <b_lp_Chiralities_Consistent>
1

> <s_lp_Variant>
/home/yujie/leadopt/data/result/selection/CDK9/lig_15.sdf:1-1

> <s_i_glide_gridfile>
glide-grid_CDK9

> <i_i_glide_lignum>
13

> <i_i_glide_rotatable_bonds>
3

> <r_i_docking_score>
-9.25313424306492

> <r_i_glide_ligand_efficiency>
-0.370125369722597

> <r_i_glide_ligand_efficiency_sa>
-1.08225314527026

> <r_i_glide_ligand_efficiency_ln>
-2.19327010966339

> <r_i_glide_gscore>
-9.25313424306492

> <r_i_glide_lipo>
-2.97126806929015

> <r_i_glide_hbond>
-0.497543393196703

> <r_i_glide_metal>
0

> <r_i_glide_rewards>
-2.57066330760283

> <r_i_glide_evdw>
-40.6503028869629

> <r_i_glide_ecoul>
-8.80098152160645

> <r_i_glide_erotb>
0.228783346525236

> <r_i_glide_esite>
-0.0897804469113635

> <r_i_glide_emodel>
-70.9574651982679

> <r_i_glide_energy>
-49.4512844085693

> <r_i_glide_einternal>
0.951695024967194

> <i_i_glide_confnum>
12

> <i_i_glide_posenum>
396

> <r_i_glide_eff_state_penalty>
0

> <r_lp_tautomer_probability>
1

> <s_m_job_name>
glide-dock_SP_all

> <r_glide_shape_similarity>
0.895774006843567

> <s_m_subgroup_title>
glide-dock_SP_all_lib1

> <s_m_subgroupid>
glide-dock_SP_all_lib1

> <b_m_subgroup_collapsed>
0

$$$$
