/home/yujie/leadopt/data/result/selection/CDK9/lig_24.sdf:1
                    3D
 Schrodinger Suite 2021-2.
 63 66  0  0  1  0            999 V2000
  -41.5926  -35.2871   -0.1676 C   0  0  0  0  0  0
  -41.5429  -34.5245   -1.5249 C   0  0  0  0  0  0
  -42.9458  -34.4634   -2.1876 C   0  0  0  0  0  0
  -40.5428  -35.0478   -2.4889 N   0  0  0  0  0  0
  -40.3005  -36.4364   -2.4615 C   0  0  0  0  0  0
  -39.5032  -37.0658   -3.3346 C   0  0  0  0  0  0
  -38.8556  -36.2408   -4.3369 C   0  0  0  0  0  0
  -39.0871  -34.9122   -4.4017 C   0  0  0  0  0  0
  -39.9768  -34.2345   -3.4498 C   0  0  0  0  0  0
  -40.1929  -33.0216   -3.5362 O   0  0  0  0  0  0
  -39.3371  -38.5302   -3.2826 C   0  0  0  0  0  0
  -38.0597  -39.1089   -3.4460 C   0  0  0  0  0  0
  -37.9323  -40.5132   -3.3669 C   0  0  0  0  0  0
  -38.9632  -41.3747   -3.1825 N   0  0  0  0  0  0
  -40.1820  -40.7803   -3.0474 C   0  0  0  0  0  0
  -40.4540  -39.3791   -3.0587 C   0  0  0  0  0  0
  -41.8590  -39.2102   -2.8333 C   0  0  0  0  0  0
  -42.3780  -40.4610   -2.6127 C   0  0  0  0  0  0
  -41.3894  -41.4147   -2.8124 N   0  0  0  0  0  0
  -43.7879  -40.7617   -2.2451 C   0  0  1  0  0  0
  -44.6658  -40.4358   -3.4544 C   0  0  0  0  0  0
  -46.1198  -40.5768   -3.0627 C   0  0  0  0  0  0
  -46.3134  -42.0173   -2.7808 N   0  3  1  0  0  0
  -45.6117  -42.4265   -1.5345 C   0  0  0  0  0  0
  -44.0860  -42.1943   -1.7154 C   0  0  0  0  0  0
  -47.7127  -42.4387   -2.9760 C   0  0  0  0  0  0
  -47.9587  -42.4360   -4.5028 C   0  0  0  0  0  0
  -47.1355  -43.0393   -5.1954 O   0  0  0  0  0  0
  -48.9778  -41.7059   -5.0314 N   0  0  0  0  0  0
  -50.0076  -41.0201   -4.2273 C   0  0  0  0  0  0
  -49.1591  -41.5700   -6.4857 C   0  0  0  0  0  0
  -41.5442  -42.4161   -2.7014 H   0  0  0  0  0  0
  -42.1700  -34.7097    0.5436 H   0  0  0  0  0  0
  -42.1088  -36.2419   -0.2387 H   0  0  0  0  0  0
  -40.6019  -35.4549    0.2489 H   0  0  0  0  0  0
  -41.2559  -33.5036   -1.2782 H   0  0  0  0  0  0
  -43.6822  -34.0681   -1.4867 H   0  0  0  0  0  0
  -42.9456  -33.8115   -3.0604 H   0  0  0  0  0  0
  -43.2790  -35.4536   -2.5049 H   0  0  0  0  0  0
  -40.8122  -36.9952   -1.7022 H   0  0  0  0  0  0
  -38.1875  -36.6969   -5.0518 H   0  0  0  0  0  0
  -38.5965  -34.3267   -5.1624 H   0  0  0  0  0  0
  -37.1867  -38.4921   -3.6063 H   0  0  0  0  0  0
  -36.9581  -40.9641   -3.4803 H   0  0  0  0  0  0
  -42.3917  -38.2715   -2.7869 H   0  0  0  0  0  0
  -44.0592  -40.0681   -1.4443 H   0  0  0  0  0  0
  -44.4384  -41.1490   -4.2513 H   0  0  0  0  0  0
  -44.4828  -39.4334   -3.8529 H   0  0  0  0  0  0
  -46.7294  -40.2055   -3.8840 H   0  0  0  0  0  0
  -46.3709  -39.9678   -2.1925 H   0  0  0  0  0  0
  -45.9899  -41.8649   -0.6809 H   0  0  0  0  0  0
  -45.7983  -43.4792   -1.3188 H   0  0  0  0  0  0
  -43.5606  -42.3734   -0.7779 H   0  0  0  0  0  0
  -43.7042  -42.9346   -2.4222 H   0  0  0  0  0  0
  -48.3648  -41.7855   -2.3964 H   0  0  0  0  0  0
  -47.8549  -43.4530   -2.6014 H   0  0  0  0  0  0
  -50.3048  -41.6138   -3.3593 H   0  0  0  0  0  0
  -50.9238  -40.8632   -4.8019 H   0  0  0  0  0  0
  -49.6642  -40.0426   -3.8821 H   0  0  0  0  0  0
  -48.8949  -40.5588   -6.8002 H   0  0  0  0  0  0
  -48.5540  -42.2778   -7.0643 H   0  0  0  0  0  0
  -50.1989  -41.7622   -6.7581 H   0  0  0  0  0  0
  -45.8312  -42.4976   -3.5325 H   0  0  0  0  0  0
  1  2  1  0  0  0
  1 33  1  0  0  0
  1 34  1  0  0  0
  1 35  1  0  0  0
  2  3  1  0  0  0
  2  4  1  0  0  0
  2 36  1  0  0  0
  3 37  1  0  0  0
  3 38  1  0  0  0
  3 39  1  0  0  0
  4  9  1  0  0  0
  4  5  1  0  0  0
  5  6  2  0  0  0
  5 40  1  0  0  0
  6  7  1  0  0  0
  6 11  1  0  0  0
  7  8  2  0  0  0
  7 41  1  0  0  0
  8  9  1  0  0  0
  8 42  1  0  0  0
  9 10  2  0  0  0
 11 16  1  0  0  0
 11 12  2  0  0  0
 12 13  1  0  0  0
 12 43  1  0  0  0
 13 14  2  0  0  0
 13 44  1  0  0  0
 14 15  1  0  0  0
 15 19  1  0  0  0
 15 16  2  0  0  0
 16 17  1  0  0  0
 17 18  2  0  0  0
 17 45  1  0  0  0
 18 19  1  0  0  0
 18 20  1  0  0  0
 19 32  1  0  0  0
 20 25  1  0  0  0
 20 21  1  0  0  0
 20 46  1  0  0  0
 21 22  1  0  0  0
 21 47  1  0  0  0
 21 48  1  0  0  0
 22 23  1  0  0  0
 22 49  1  0  0  0
 22 50  1  0  0  0
 23 24  1  0  0  0
 23 26  1  0  0  0
 23 63  1  0  0  0
 24 25  1  0  0  0
 24 51  1  0  0  0
 24 52  1  0  0  0
 25 53  1  0  0  0
 25 54  1  0  0  0
 26 27  1  0  0  0
 26 55  1  0  0  0
 26 56  1  0  0  0
 27 28  2  0  0  0
 27 29  1  0  0  0
 29 30  1  0  0  0
 29 31  1  0  0  0
 30 57  1  0  0  0
 30 58  1  0  0  0
 30 59  1  0  0  0
 31 60  1  0  0  0
 31 61  1  0  0  0
 31 62  1  0  0  0
M  CHG  1  23   1
M  END
> <s_m_entry_id>
240

> <s_m_entry_name>
CDK9_lig_24.1

> <s_m_Source_Path>
C:\Users\yujiethinkpad\Desktop\selection\selection\CDK9_pose

> <s_m_Source_File>
CDK9_lig_24.sdf

> <i_m_Source_File_Index>
1

> <i_lp_mmshare_version>
51139

> <i_f3d_flags>
0

> <s_epik_input>
W0NIM11bQ0hdKFtDSDNdKW4xW2NIXWMoW2NIXVtjSF1jMT1PKS1jKFtjSF1bY0hdbjIpYyhjMjMpW2NIXWMoW25IXTMpW0NIXTRbQ0gyXVtDSDJdTihbQ0gyXVtDSDJdNClbQ0gyXUMoPU8pTihbQ0gzXSlbQ0gzXQ==

> <s_epik_cmdline>
J2VwaWtfcHl0aG9uJywgJy1waHQnLCAnMi4wJywgJy1waCcsICc3LjAnLCAnLXRuJywgJzgnLCAnLW1hJywgJzIwMCcsICctaW1hZScsICc8aW5maWxlLm1hZT4nLCAnLW9tYWUnLCAnPG91dGZpbGUubWFlPic=

> <r_epik_Ionization_Penalty>
  0.0792

> <r_epik_Ionization_Penalty_Charging>
  0.0781

> <r_epik_Ionization_Penalty_Neutral>
  0.0011

> <r_epik_State_Penalty>
  0.0690

> <r_epik_Charging_Adjusted_Penalty>
0.147047

> <i_epik_Tot_Q>
1

> <i_epik_Tot_abs_Q>
1

> <s_lp_Force_Field>
OPLS3e

> <r_lp_Energy>
62.1433

> <b_lp_Chiralities_Consistent>
1

> <s_lp_Variant>
/home/yujie/leadopt/data/result/selection/CDK9/lig_24.sdf:1-1

> <s_i_glide_gridfile>
glide-grid_CDK9

> <i_i_glide_lignum>
22

> <i_i_glide_rotatable_bonds>
6

> <r_i_docking_score>
-8.98839197916834

> <r_i_glide_ligand_efficiency>
-0.289948128360269

> <r_i_glide_ligand_efficiency_sa>
-0.910837439585444

> <r_i_glide_ligand_efficiency_ln>
-2.02715785243499

> <r_i_glide_gscore>
-9.05739197916834

> <r_i_glide_lipo>
-3.03962441639018

> <r_i_glide_hbond>
-0.556609036493773

> <r_i_glide_metal>
0

> <r_i_glide_rewards>
-2.13920703742384

> <r_i_glide_evdw>
-44.843505859375

> <r_i_glide_ecoul>
-9.21780681610107

> <r_i_glide_erotb>
0.310692547007208

> <r_i_glide_esite>
-0.00779772048384287

> <r_i_glide_emodel>
-70.4884207014112

> <r_i_glide_energy>
-54.0613126754761

> <r_i_glide_einternal>
1.16704046726227

> <i_i_glide_confnum>
5

> <i_i_glide_posenum>
357

> <r_i_glide_eff_state_penalty>
0.069

> <r_lp_tautomer_probability>
0.999998

> <s_m_job_name>
glide-dock_SP_all

> <r_glide_shape_similarity>
0.811828196048737

> <s_m_subgroup_title>
glide-dock_SP_all_lib1

> <s_m_subgroupid>
glide-dock_SP_all_lib1

> <b_m_subgroup_collapsed>
0

$$$$
