/home/yujie/leadopt/data/result/selection/CDK9/lig_21.sdf:1
                    3D
 Schrodinger Suite 2021-2.
 56 59  0  0  1  0            999 V2000
  -41.6215  -34.3705   -1.5671 C   0  0  0  0  0  0
  -40.6297  -34.9508   -2.4824 N   0  0  0  0  0  0
  -40.4212  -36.3427   -2.3759 C   0  0  0  0  0  0
  -39.6174  -37.0121   -3.2272 C   0  0  0  0  0  0
  -38.9547  -36.2363   -4.2655 C   0  0  0  0  0  0
  -39.1507  -34.9082   -4.3796 C   0  0  0  0  0  0
  -40.0188  -34.1824   -3.4483 C   0  0  0  0  0  0
  -40.1939  -32.9647   -3.5587 O   0  0  0  0  0  0
  -39.4315  -38.4759   -3.1724 C   0  0  0  0  0  0
  -38.1303  -39.0145   -3.3035 C   0  0  0  0  0  0
  -37.9556  -40.4156   -3.2780 C   0  0  0  0  0  0
  -38.9605  -41.3144   -3.1630 N   0  0  0  0  0  0
  -40.2009  -40.7608   -3.0544 C   0  0  0  0  0  0
  -40.5312  -39.3695   -3.0363 C   0  0  0  0  0  0
  -41.9642  -39.2748   -2.8812 C   0  0  0  0  0  0
  -42.4385  -40.5624   -2.7298 C   0  0  0  0  0  0
  -41.3809  -41.4505   -2.8784 N   0  0  0  0  0  0
  -43.8190  -41.0505   -2.3845 C   0  0  0  0  0  0
  -44.8990  -39.9991   -2.7198 C   0  0  0  0  0  0
  -46.3309  -40.5373   -2.5291 C   0  0  0  0  0  0
  -46.4944  -41.7678   -3.3161 N   0  0  1  0  0  0
  -45.6207  -42.8118   -2.7821 C   0  0  0  0  0  0
  -44.1699  -42.3911   -3.0681 C   0  0  0  0  0  0
  -47.9034  -42.1821   -3.3858 C   0  0  0  0  0  0
  -48.6361  -41.4575   -4.5342 C   0  0  0  0  0  0
  -49.2971  -40.4446   -4.2767 O   0  0  0  0  0  0
  -48.5409  -41.9718   -5.7892 N   0  0  0  0  0  0
  -47.6445  -43.0907   -6.1443 C   0  0  0  0  0  0
  -49.3461  -41.4254   -6.8989 C   0  0  0  0  0  0
  -41.4820  -42.4581   -2.7651 H   0  0  0  0  0  0
  -41.9502  -35.0657   -0.7915 H   0  0  0  0  0  0
  -41.2283  -33.4990   -1.0560 H   0  0  0  0  0  0
  -42.5063  -34.0551   -2.1250 H   0  0  0  0  0  0
  -40.9729  -36.8275   -1.5842 H   0  0  0  0  0  0
  -38.3013  -36.7309   -4.9728 H   0  0  0  0  0  0
  -38.6488  -34.3601   -5.1648 H   0  0  0  0  0  0
  -37.2722  -38.3679   -3.4172 H   0  0  0  0  0  0
  -36.9641  -40.8305   -3.3706 H   0  0  0  0  0  0
  -42.5326  -38.3581   -2.8205 H   0  0  0  0  0  0
  -43.8520  -41.2191   -1.3064 H   0  0  0  0  0  0
  -44.7846  -39.6776   -3.7575 H   0  0  0  0  0  0
  -44.7615  -39.1103   -2.1031 H   0  0  0  0  0  0
  -47.0334  -39.7731   -2.8634 H   0  0  0  0  0  0
  -46.5382  -40.7195   -1.4728 H   0  0  0  0  0  0
  -45.7960  -42.9682   -1.7168 H   0  0  0  0  0  0
  -45.8095  -43.7639   -3.2791 H   0  0  0  0  0  0
  -43.5016  -43.1772   -2.7247 H   0  0  0  0  0  0
  -44.0240  -42.3066   -4.1456 H   0  0  0  0  0  0
  -48.4056  -41.9955   -2.4342 H   0  0  0  0  0  0
  -47.9829  -43.2562   -3.5500 H   0  0  0  0  0  0
  -48.0692  -44.0421   -5.8244 H   0  0  0  0  0  0
  -46.6544  -42.9780   -5.7014 H   0  0  0  0  0  0
  -47.4955  -43.1366   -7.2232 H   0  0  0  0  0  0
  -48.8284  -40.6013   -7.3904 H   0  0  0  0  0  0
  -49.5562  -42.1877   -7.6521 H   0  0  0  0  0  0
  -50.3149  -41.0572   -6.5514 H   0  0  0  0  0  0
  1  2  1  0  0  0
  1 31  1  0  0  0
  1 32  1  0  0  0
  1 33  1  0  0  0
  2  7  1  0  0  0
  2  3  1  0  0  0
  3  4  2  0  0  0
  3 34  1  0  0  0
  4  5  1  0  0  0
  4  9  1  0  0  0
  5  6  2  0  0  0
  5 35  1  0  0  0
  6  7  1  0  0  0
  6 36  1  0  0  0
  7  8  2  0  0  0
  9 14  1  0  0  0
  9 10  2  0  0  0
 10 11  1  0  0  0
 10 37  1  0  0  0
 11 12  2  0  0  0
 11 38  1  0  0  0
 12 13  1  0  0  0
 13 17  1  0  0  0
 13 14  2  0  0  0
 14 15  1  0  0  0
 15 16  2  0  0  0
 15 39  1  0  0  0
 16 17  1  0  0  0
 16 18  1  0  0  0
 17 30  1  0  0  0
 18 23  1  0  0  0
 18 19  1  0  0  0
 18 40  1  0  0  0
 19 20  1  0  0  0
 19 41  1  0  0  0
 19 42  1  0  0  0
 20 21  1  0  0  0
 20 43  1  0  0  0
 20 44  1  0  0  0
 21 22  1  0  0  0
 21 24  1  0  0  0
 22 23  1  0  0  0
 22 45  1  0  0  0
 22 46  1  0  0  0
 23 47  1  0  0  0
 23 48  1  0  0  0
 24 25  1  0  0  0
 24 49  1  0  0  0
 24 50  1  0  0  0
 25 26  2  0  0  0
 25 27  1  0  0  0
 27 28  1  0  0  0
 27 29  1  0  0  0
 28 51  1  0  0  0
 28 52  1  0  0  0
 28 53  1  0  0  0
 29 54  1  0  0  0
 29 55  1  0  0  0
 29 56  1  0  0  0
M  END
> <s_m_entry_id>
258

> <s_m_entry_name>
CDK9_lig_21.1

> <s_m_Source_Path>
C:\Users\yujiethinkpad\Desktop\selection\selection\CDK9_pose

> <s_m_Source_File>
CDK9_lig_21.sdf

> <i_m_Source_File_Index>
1

> <i_lp_mmshare_version>
51139

> <i_f3d_flags>
0

> <s_epik_input>
Tz1jMVtjSF1bY0hdYyhbY0hdbjFbQ0gzXSktYyhbY0hdW2NIXW4yKWMoYzIzKVtjSF1jKFtuSF0zKVtDSF00W0NIMl1bQ0gyXU4oW0NIMl1bQ0gyXTQpW0NIMl1DKD1PKU4oW0NIM10pW0NIM10=

> <s_epik_cmdline>
J2VwaWtfcHl0aG9uJywgJy1waHQnLCAnMi4wJywgJy1waCcsICc3LjAnLCAnLXRuJywgJzgnLCAnLW1hJywgJzIwMCcsICctaW1hZScsICc8aW5maWxlLm1hZT4nLCAnLW9tYWUnLCAnPG91dGZpbGUubWFlPic=

> <r_epik_Ionization_Penalty>
  1.2409

> <r_epik_Ionization_Penalty_Charging>
  0.0000

> <r_epik_Ionization_Penalty_Neutral>
  1.2409

> <r_epik_State_Penalty>
  1.3083

> <r_epik_Charging_Adjusted_Penalty>
1.30828

> <i_epik_Tot_Q>
0

> <i_epik_Tot_abs_Q>
0

> <s_lp_Force_Field>
OPLS3e

> <r_lp_Energy>
55.082

> <b_lp_Chiralities_Consistent>
1

> <s_lp_Variant>
/home/yujie/leadopt/data/result/selection/CDK9/lig_21.sdf:1-2

> <s_i_glide_gridfile>
glide-grid_CDK9

> <i_i_glide_lignum>
19

> <i_i_glide_rotatable_bonds>
5

> <r_i_docking_score>
-7.52418492675699

> <r_i_glide_ligand_efficiency>
-0.259454652646793

> <r_i_glide_ligand_efficiency_sa>
-0.797126893934498

> <r_i_glide_ligand_efficiency_ln>
-1.72284755136001

> <r_i_glide_gscore>
-8.83248492675699

> <r_i_glide_lipo>
-2.76198570102843

> <r_i_glide_hbond>
-0.567993996667907

> <r_i_glide_metal>
0

> <r_i_glide_rewards>
-2.27530535643521

> <r_i_glide_evdw>
-43.0425796508789

> <r_i_glide_ecoul>
-9.52238655090332

> <r_i_glide_erotb>
0.353287092553991

> <r_i_glide_esite>
0

> <r_i_glide_emodel>
-65.7824166422065

> <r_i_glide_energy>
-52.5649662017822

> <r_i_glide_einternal>
2.93325757980347

> <i_i_glide_confnum>
10

> <i_i_glide_posenum>
237

> <r_i_glide_eff_state_penalty>
1.3083

> <r_lp_tautomer_probability>
0.999998

> <s_m_job_name>
glide-dock_SP_all

> <r_glide_shape_similarity>
0.852104067802429

> <s_m_subgroup_title>
glide-dock_SP_all_lib1

> <s_m_subgroupid>
glide-dock_SP_all_lib1

> <b_m_subgroup_collapsed>
0

$$$$
