/home/yujie/leadopt/data/result/selection/CDK9/lig_27.sdf:1
                    3D
 Schrodinger Suite 2021-2.
 63 66  0  0  1  0            999 V2000
  -50.0258  -40.6100   -4.5091 C   0  0  0  0  0  0
  -49.0744  -41.4065   -5.3000 N   0  0  0  0  0  0
  -49.3416  -41.3919   -6.7507 C   0  0  0  0  0  0
  -48.0474  -42.1183   -4.7591 C   0  0  0  0  0  0
  -47.3099  -42.8241   -5.4537 O   0  0  0  0  0  0
  -47.7795  -42.0396   -3.2351 C   0  0  0  0  0  0
  -46.3755  -41.6999   -2.9773 N   0  0  1  0  0  0
  -46.1270  -40.9126   -1.7668 C   0  0  0  0  0  0
  -44.7456  -40.2486   -1.9428 C   0  0  0  0  0  0
  -43.6409  -41.2786   -2.2531 C   0  0  0  0  0  0
  -44.0953  -42.3075   -3.3095 C   0  0  0  0  0  0
  -45.4833  -42.8597   -2.9934 C   0  0  0  0  0  0
  -42.3387  -40.6640   -2.6564 C   0  0  0  0  0  0
  -41.9428  -39.3586   -2.8583 C   0  0  0  0  0  0
  -40.5038  -39.3833   -3.0286 C   0  0  0  0  0  0
  -39.4270  -38.4565   -3.1676 C   0  0  0  0  0  0
  -38.1122  -38.9747   -3.2936 C   0  0  0  0  0  0
  -37.8950  -40.3664   -3.2866 C   0  0  0  0  0  0
  -38.8723  -41.2881   -3.1781 N   0  0  0  0  0  0
  -40.1203  -40.7625   -3.0548 C   0  0  0  0  0  0
  -41.2556  -41.4980   -2.8425 N   0  0  0  0  0  0
  -39.6214  -36.9843   -3.2256 C   0  0  0  0  0  0
  -38.7314  -36.1699   -4.0413 C   0  0  0  0  0  0
  -38.8923  -34.8386   -4.1563 C   0  0  0  0  0  0
  -39.9889  -34.1420   -3.4848 C   0  0  0  0  0  0
  -40.1454  -32.9245   -3.6152 O   0  0  0  0  0  0
  -40.8517  -34.9432   -2.7833 N   0  0  0  0  0  0
  -40.6290  -36.3295   -2.6121 C   0  0  0  0  0  0
  -42.2080  -34.4649   -2.4573 C   0  0  0  0  0  0
  -42.5483  -34.3600   -0.9559 C   0  0  0  0  0  0
  -44.3623  -34.1512   -0.7789 S   0  0  0  0  0  0
  -44.5054  -33.5867    0.9378 C   0  0  0  0  0  0
  -41.3107  -42.5078   -2.7293 H   0  0  0  0  0  0
  -50.4377  -41.1936   -3.6834 H   0  0  0  0  0  0
  -50.8776  -40.2904   -5.1092 H   0  0  0  0  0  0
  -49.5448  -39.7159   -4.1068 H   0  0  0  0  0  0
  -49.0445  -40.4344   -7.1765 H   0  0  0  0  0  0
  -48.8197  -42.1785   -7.2946 H   0  0  0  0  0  0
  -50.4059  -41.5342   -6.9491 H   0  0  0  0  0  0
  -48.4082  -41.2905   -2.7586 H   0  0  0  0  0  0
  -48.0367  -42.9874   -2.7611 H   0  0  0  0  0  0
  -46.8731  -40.1246   -1.6514 H   0  0  0  0  0  0
  -46.1754  -41.5260   -0.8651 H   0  0  0  0  0  0
  -44.8163  -39.5391   -2.7682 H   0  0  0  0  0  0
  -44.4871  -39.6692   -1.0557 H   0  0  0  0  0  0
  -43.4731  -41.8302   -1.3269 H   0  0  0  0  0  0
  -43.3846  -43.1301   -3.3685 H   0  0  0  0  0  0
  -44.1122  -41.8511   -4.2972 H   0  0  0  0  0  0
  -45.4979  -43.3942   -2.0426 H   0  0  0  0  0  0
  -45.7487  -43.5910   -3.7533 H   0  0  0  0  0  0
  -42.5710  -38.4828   -2.8033 H   0  0  0  0  0  0
  -37.2565  -38.3215   -3.3806 H   0  0  0  0  0  0
  -36.8884  -40.7456   -3.3760 H   0  0  0  0  0  0
  -37.9183  -36.6278   -4.5856 H   0  0  0  0  0  0
  -38.2071  -34.2757   -4.7734 H   0  0  0  0  0  0
  -41.3690  -36.8166   -1.9976 H   0  0  0  0  0  0
  -42.4311  -33.5066   -2.9307 H   0  0  0  0  0  0
  -42.9043  -35.1645   -2.9240 H   0  0  0  0  0  0
  -42.2441  -35.2491   -0.4034 H   0  0  0  0  0  0
  -42.0317  -33.5064   -0.5142 H   0  0  0  0  0  0
  -45.5544  -33.4892    1.2136 H   0  0  0  0  0  0
  -44.0308  -34.2974    1.6135 H   0  0  0  0  0  0
  -44.0296  -32.6130    1.0409 H   0  0  0  0  0  0
  1  2  1  0  0  0
  1 34  1  0  0  0
  1 35  1  0  0  0
  1 36  1  0  0  0
  2  3  1  0  0  0
  2  4  1  0  0  0
  3 37  1  0  0  0
  3 38  1  0  0  0
  3 39  1  0  0  0
  4  5  2  0  0  0
  4  6  1  0  0  0
  6  7  1  0  0  0
  6 40  1  0  0  0
  6 41  1  0  0  0
  7 12  1  0  0  0
  7  8  1  0  0  0
  8  9  1  0  0  0
  8 42  1  0  0  0
  8 43  1  0  0  0
  9 10  1  0  0  0
  9 44  1  0  0  0
  9 45  1  0  0  0
 10 11  1  0  0  0
 10 13  1  0  0  0
 10 46  1  0  0  0
 11 12  1  0  0  0
 11 47  1  0  0  0
 11 48  1  0  0  0
 12 49  1  0  0  0
 12 50  1  0  0  0
 13 21  1  0  0  0
 13 14  2  0  0  0
 14 15  1  0  0  0
 14 51  1  0  0  0
 15 20  2  0  0  0
 15 16  1  0  0  0
 16 17  2  0  0  0
 16 22  1  0  0  0
 17 18  1  0  0  0
 17 52  1  0  0  0
 18 19  2  0  0  0
 18 53  1  0  0  0
 19 20  1  0  0  0
 20 21  1  0  0  0
 21 33  1  0  0  0
 22 28  2  0  0  0
 22 23  1  0  0  0
 23 24  2  0  0  0
 23 54  1  0  0  0
 24 25  1  0  0  0
 24 55  1  0  0  0
 25 26  2  0  0  0
 25 27  1  0  0  0
 27 28  1  0  0  0
 27 29  1  0  0  0
 28 56  1  0  0  0
 29 30  1  0  0  0
 29 57  1  0  0  0
 29 58  1  0  0  0
 30 31  1  0  0  0
 30 59  1  0  0  0
 30 60  1  0  0  0
 31 32  1  0  0  0
 32 61  1  0  0  0
 32 62  1  0  0  0
 32 63  1  0  0  0
M  END
> <s_m_entry_id>
261

> <s_m_entry_name>
CDK9_lig_27.1

> <s_m_Source_Path>
C:\Users\yujiethinkpad\Desktop\selection\selection\CDK9_pose

> <s_m_Source_File>
CDK9_lig_27.sdf

> <i_m_Source_File_Index>
1

> <i_lp_mmshare_version>
51139

> <i_f3d_flags>
0

> <s_epik_input>
W0NIM11OKFtDSDNdKUMoPU8pW0NIMl1OMVtDSDJdW0NIMl1bQ0hdKFtDSDJdW0NIMl0xKWMoW2NIXTIpW25IXWMoYzIzKW5bY0hdW2NIXWMzLWM0W2NIXVtjSF1jKD1PKW4oW2NIXTQpW0NIMl1bQ0gyXVNbQ0gzXQ==

> <s_epik_cmdline>
J2VwaWtfcHl0aG9uJywgJy1waHQnLCAnMi4wJywgJy1waCcsICc3LjAnLCAnLXRuJywgJzgnLCAnLW1hJywgJzIwMCcsICctaW1hZScsICc8aW5maWxlLm1hZT4nLCAnLW9tYWUnLCAnPG91dGZpbGUubWFlPic=

> <r_epik_Ionization_Penalty>
  1.2409

> <r_epik_Ionization_Penalty_Charging>
  0.0000

> <r_epik_Ionization_Penalty_Neutral>
  1.2409

> <r_epik_State_Penalty>
  1.3083

> <r_epik_Charging_Adjusted_Penalty>
1.30828

> <i_epik_Tot_Q>
0

> <i_epik_Tot_abs_Q>
0

> <s_lp_Force_Field>
OPLS3e

> <r_lp_Energy>
53.0252

> <b_lp_Chiralities_Consistent>
1

> <s_lp_Variant>
/home/yujie/leadopt/data/result/selection/CDK9/lig_27.sdf:1-2

> <s_i_glide_gridfile>
glide-grid_CDK9

> <i_i_glide_lignum>
25

> <i_i_glide_rotatable_bonds>
8

> <r_i_docking_score>
-7.22607049434091

> <r_i_glide_ligand_efficiency>
-0.225814702948153

> <r_i_glide_ligand_efficiency_sa>
-0.716916993191355

> <r_i_glide_ligand_efficiency_ln>
-1.61811415892521

> <r_i_glide_gscore>
-8.53437049434091

> <r_i_glide_lipo>
-2.72316942655557

> <r_i_glide_hbond>
-0.530687415200661

> <r_i_glide_metal>
0

> <r_i_glide_rewards>
-1.82714672777377

> <r_i_glide_evdw>
-49.8786888122559

> <r_i_glide_ecoul>
-9.12804126739502

> <r_i_glide_erotb>
0.409773705911136

> <r_i_glide_esite>
0

> <r_i_glide_emodel>
-68.2014664612042

> <r_i_glide_energy>
-59.0067300796509

> <r_i_glide_einternal>
1.74782860279083

> <i_i_glide_confnum>
41

> <i_i_glide_posenum>
125

> <r_i_glide_eff_state_penalty>
1.3083

> <r_lp_tautomer_probability>
0.999998

> <s_m_job_name>
glide-dock_SP_all

> <r_glide_shape_similarity>
0.781079411506653

> <s_m_subgroup_title>
glide-dock_SP_all_lib1

> <s_m_subgroupid>
glide-dock_SP_all_lib1

> <b_m_subgroup_collapsed>
0

$$$$
