/home/yujie/leadopt/data/result/selection/CDK9/lig_11.sdf:1
                    3D
 Schrodinger Suite 2021-2.
 43 46  0  0  1  0            999 V2000
  -41.2515  -36.2691    0.0247 C   0  0  0  0  0  0
  -40.7210  -36.9768   -1.0866 O   0  0  0  0  0  0
  -40.2988  -36.2687   -2.1891 C   0  0  0  0  0  0
  -40.4846  -34.8764   -2.3321 C   0  0  0  0  0  0
  -39.9938  -34.2009   -3.4543 C   0  0  0  0  0  0
  -39.3116  -34.9036   -4.4454 C   0  0  0  0  0  0
  -39.1381  -36.2847   -4.3230 C   0  0  0  0  0  0
  -39.6367  -36.9853   -3.2117 C   0  0  0  0  0  0
  -39.4441  -38.4450   -3.1579 C   0  0  0  0  0  0
  -38.1588  -39.0023   -3.2658 C   0  0  0  0  0  0
  -37.9923  -40.3952   -3.2538 C   0  0  0  0  0  0
  -38.9970  -41.2846   -3.1546 N   0  0  0  0  0  0
  -40.2231  -40.7268   -3.0555 C   0  0  0  0  0  0
  -40.5312  -39.3425   -3.0543 C   0  0  0  0  0  0
  -41.9491  -39.2269   -2.9644 C   0  0  0  0  0  0
  -42.4523  -40.4945   -2.8779 C   0  0  0  0  0  0
  -41.4124  -41.3948   -2.9203 N   0  0  0  0  0  0
  -43.8762  -40.8978   -2.7406 C   0  0  0  0  0  0
  -44.2866  -42.0836   -3.6116 C   0  0  0  0  0  0
  -45.7928  -42.3138   -3.4950 C   0  0  0  0  0  0
  -46.0638  -42.6358   -2.1511 O   0  0  0  0  0  0
  -45.7554  -41.5862   -1.2530 C   0  0  0  0  0  0
  -44.2728  -41.2185   -1.3084 C   0  0  0  0  0  0
  -40.1713  -32.8714   -3.5848 F   0  0  0  0  0  0
  -41.5408  -42.3946   -2.8292 H   0  0  0  0  0  0
  -41.4666  -36.9741    0.8296 H   0  0  0  0  0  0
  -40.5392  -35.5374    0.4119 H   0  0  0  0  0  0
  -42.1821  -35.7635   -0.2283 H   0  0  0  0  0  0
  -40.9936  -34.2902   -1.5829 H   0  0  0  0  0  0
  -38.9314  -34.3887   -5.3122 H   0  0  0  0  0  0
  -38.6247  -36.8205   -5.1082 H   0  0  0  0  0  0
  -37.2924  -38.3627   -3.3624 H   0  0  0  0  0  0
  -37.0014  -40.8156   -3.3373 H   0  0  0  0  0  0
  -42.5091  -38.3030   -2.9546 H   0  0  0  0  0  0
  -44.4756  -40.0459   -3.0599 H   0  0  0  0  0  0
  -44.0335  -41.9004   -4.6540 H   0  0  0  0  0  0
  -43.7471  -42.9878   -3.3170 H   0  0  0  0  0  0
  -46.3655  -41.4413   -3.8123 H   0  0  0  0  0  0
  -46.1002  -43.1486   -4.1283 H   0  0  0  0  0  0
  -46.3797  -40.7183   -1.4657 H   0  0  0  0  0  0
  -46.0202  -41.9167   -0.2536 H   0  0  0  0  0  0
  -43.6732  -42.0471   -0.9284 H   0  0  0  0  0  0
  -44.0761  -40.3676   -0.6571 H   0  0  0  0  0  0
  1  2  1  0  0  0
  1 26  1  0  0  0
  1 27  1  0  0  0
  1 28  1  0  0  0
  2  3  1  0  0  0
  3  8  1  0  0  0
  3  4  2  0  0  0
  4  5  1  0  0  0
  4 29  1  0  0  0
  5  6  2  0  0  0
  5 24  1  0  0  0
  6  7  1  0  0  0
  6 30  1  0  0  0
  7  8  2  0  0  0
  7 31  1  0  0  0
  8  9  1  0  0  0
  9 14  1  0  0  0
  9 10  2  0  0  0
 10 11  1  0  0  0
 10 32  1  0  0  0
 11 12  2  0  0  0
 11 33  1  0  0  0
 12 13  1  0  0  0
 13 17  1  0  0  0
 13 14  2  0  0  0
 14 15  1  0  0  0
 15 16  2  0  0  0
 15 34  1  0  0  0
 16 17  1  0  0  0
 16 18  1  0  0  0
 17 25  1  0  0  0
 18 23  1  0  0  0
 18 19  1  0  0  0
 18 35  1  0  0  0
 19 20  1  0  0  0
 19 36  1  0  0  0
 19 37  1  0  0  0
 20 21  1  0  0  0
 20 38  1  0  0  0
 20 39  1  0  0  0
 21 22  1  0  0  0
 22 23  1  0  0  0
 22 40  1  0  0  0
 22 41  1  0  0  0
 23 42  1  0  0  0
 23 43  1  0  0  0
M  END
> <s_m_entry_id>
243

> <s_m_entry_name>
CDK9_lig_11.1

> <s_m_Source_Path>
C:\Users\yujiethinkpad\Desktop\selection\selection\CDK9_pose

> <s_m_Source_File>
CDK9_lig_11.sdf

> <i_m_Source_File_Index>
1

> <i_lp_mmshare_version>
51139

> <i_f3d_flags>
0

> <s_epik_input>
W0NIM11PYzFbY0hdYyhGKVtjSF1bY0hdYzEtYyhbY0hdW2NIXW4yKWMoYzIzKVtjSF1jKFtuSF0zKVtDSF00W0NIMl1bQ0gyXU9bQ0gyXVtDSDJdNA==

> <s_epik_cmdline>
J2VwaWtfcHl0aG9uJywgJy1waHQnLCAnMi4wJywgJy1waCcsICc3LjAnLCAnLXRuJywgJzgnLCAnLW1hJywgJzIwMCcsICctaW1hZScsICc8aW5maWxlLm1hZT4nLCAnLW9tYWUnLCAnPG91dGZpbGUubWFlPic=

> <r_epik_Ionization_Penalty>
  0.0023

> <r_epik_Ionization_Penalty_Charging>
  0.0000

> <r_epik_Ionization_Penalty_Neutral>
  0.0023

> <r_epik_State_Penalty>
  0.0016

> <r_epik_Charging_Adjusted_Penalty>
0.00157549

> <i_epik_Tot_Q>
0

> <i_epik_Tot_abs_Q>
0

> <s_lp_Force_Field>
OPLS3e

> <r_lp_Energy>
31.3619

> <b_lp_Chiralities_Consistent>
1

> <s_lp_Variant>
/home/yujie/leadopt/data/result/selection/CDK9/lig_11.sdf:1-1

> <s_i_glide_gridfile>
glide-grid_CDK9

> <i_i_glide_lignum>
9

> <i_i_glide_rotatable_bonds>
3

> <r_i_docking_score>
-8.86443194113445

> <r_i_glide_ligand_efficiency>
-0.369351330880602

> <r_i_glide_ligand_efficiency_sa>
-1.06539359538141

> <r_i_glide_ligand_efficiency_ln>
-2.12166532579027

> <r_i_glide_gscore>
-8.86603194113445

> <r_i_glide_lipo>
-2.94541416644022

> <r_i_glide_hbond>
-0.496086083251292

> <r_i_glide_metal>
0

> <r_i_glide_rewards>
-2.64760558805856

> <r_i_glide_evdw>
-40.0939521789551

> <r_i_glide_ecoul>
-6.19268274307251

> <r_i_glide_erotb>
0.246495816145928

> <r_i_glide_esite>
-0.0898218991216723

> <r_i_glide_emodel>
-59.7130998140416

> <r_i_glide_energy>
-46.2866349220276

> <r_i_glide_einternal>
0.917444348335266

> <i_i_glide_confnum>
8

> <i_i_glide_posenum>
121

> <r_i_glide_eff_state_penalty>
0.0016

> <r_lp_tautomer_probability>
0.999998

> <s_m_job_name>
glide-dock_SP_all

> <r_glide_shape_similarity>
0.881143510341644

> <s_m_subgroup_title>
glide-dock_SP_all_lib1

> <s_m_subgroupid>
glide-dock_SP_all_lib1

> <b_m_subgroup_collapsed>
0

$$$$
