27
                    3D
 Schrodinger Suite 2021-2.
 38 40  0  0  1  0            999 V2000
    3.0900  -47.2504    6.7747 O   0  0  0  0  0  0
    3.0863  -48.4855    6.5974 C   0  0  0  0  0  0
    4.1511  -49.1309    6.6518 O   0  5  0  0  0  0
    1.7953  -49.1810    6.3522 C   0  0  0  0  0  0
    0.0202  -50.9573    6.3447 C   0  0  0  0  0  0
   -0.8407  -52.0632    6.4168 C   0  0  0  0  0  0
   -2.2170  -51.8957    6.1858 C   0  0  0  0  0  0
   -2.7295  -50.6268    5.8842 C   0  0  0  0  0  0
   -1.8581  -49.5384    5.7909 C   0  0  0  0  0  0
   -0.4683  -49.6764    6.0068 C   0  0  0  0  0  0
    0.5734  -48.7000    5.9545 C   0  0  0  0  0  0
    0.2448  -47.3095    5.6230 C   0  0  0  0  0  0
   -0.1713  -46.7848    6.9543 C   0  0  0  0  0  0
   -0.7090  -45.4534    6.9809 C   0  0  0  0  0  0
   -1.9563  -45.4326    6.3519 O   0  0  0  0  0  0
   -3.0626  -45.1684    7.0920 C   0  0  0  0  0  0
   -3.4344  -45.8754    8.2484 C   0  0  0  0  0  0
   -4.7420  -45.7252    8.7536 C   0  0  0  0  0  0
   -5.6579  -44.8869    8.0913 C   0  0  0  0  0  0
   -5.2664  -44.1936    6.9412 C   0  0  0  0  0  0
   -3.9523  -44.2831    6.4818 C   0  0  0  0  0  0
   -0.4493  -53.0371    6.6662 H   0  0  0  0  0  0
   -2.8845  -52.7424    6.2522 H   0  0  0  0  0  0
   -3.7881  -50.4983    5.7014 H   0  0  0  0  0  0
   -2.2598  -48.5609    5.5692 H   0  0  0  0  0  0
   -0.4963  -47.2723    4.8239 H   0  0  0  0  0  0
    1.1304  -46.8308    5.2023 H   0  0  0  0  0  0
    0.6933  -46.8466    7.6096 H   0  0  0  0  0  0
   -0.8874  -47.4605    7.4169 H   0  0  0  0  0  0
    0.0009  -44.7840    6.4875 H   0  0  0  0  0  0
   -0.8583  -45.1051    8.0024 H   0  0  0  0  0  0
   -2.7467  -46.5361    8.7545 H   0  0  0  0  0  0
   -3.6051  -43.6738    5.6582 H   0  0  0  0  0  0
    1.7525  -50.8931    6.6326 N   0  0  0  0  0  0
    2.5870  -51.3856    6.9058 H   0  0  0  0  0  0
   -5.9746  -43.5874    6.3917 H   0  0  0  0  0  0
   -6.6715  -44.8003    8.4547 H   0  0  0  0  0  0
   -5.0275  -46.2435    9.6587 H   0  0  0  0  0  0
  1  2  2  0  0  0
  2  3  1  0  0  0
  2  4  1  0  0  0
  4 11  2  0  0  0
  4 34  1  0  0  0
  5  6  1  0  0  0
  5 10  2  0  0  0
  5 34  1  0  0  0
  6  7  2  0  0  0
  6 22  1  0  0  0
  7  8  1  0  0  0
  7 23  1  0  0  0
  8  9  2  0  0  0
  8 24  1  0  0  0
  9 10  1  0  0  0
  9 25  1  0  0  0
 10 11  1  0  0  0
 11 12  1  0  0  0
 12 26  1  0  0  0
 12 27  1  0  0  0
 12 13  1  0  0  0
 13 14  1  0  0  0
 13 28  1  0  0  0
 13 29  1  0  0  0
 14 15  1  0  0  0
 14 30  1  0  0  0
 14 31  1  0  0  0
 15 16  1  0  0  0
 16 17  1  0  0  0
 16 21  2  0  0  0
 17 18  2  0  0  0
 17 32  1  0  0  0
 18 19  1  0  0  0
 18 38  1  0  0  0
 19 20  2  0  0  0
 19 37  1  0  0  0
 20 21  1  0  0  0
 20 36  1  0  0  0
 21 33  1  0  0  0
 34 35  1  0  0  0
M  CHG  1   3  -1
M  END
> <s_m_entry_id>
194

> <s_m_entry_name>
MCL1_27.1

> <r_m_Molecular_weight>
294.33312

> <s_m_Source_Path>
C:\Users\yujiethinkpad\Desktop\05A\MCL1\original

> <s_m_Source_File>
MCL1_27.sdf

> <r_user_dG.exp>
-6.11639066902356

> <s_fepmapper_entryid>
32

> <i_fepmapper_bias>
0

> <i_fepmapper_affinity>
1

> <r_fepmapper_exp_dG>
-6.11639066902

> <i_fepmapper_unit>
1

> <i_m_Source_File_Index>
1

> <s_m_job_name>
align_ligands_1

> <s_i_glide_gridfile>
glide-grid_MCL1

> <i_i_glide_lignum>
11

> <i_i_glide_rotatable_bonds>
6

> <r_i_docking_score>
-6.83435040431065

> <r_i_glide_ligand_efficiency>
-0.31065229110503

> <r_i_glide_ligand_efficiency_sa>
-0.870459936937623

> <r_i_glide_ligand_efficiency_ln>
-1.67056452780155

> <r_i_glide_gscore>
-6.83435040431065

> <r_i_glide_lipo>
-3.92861712062476

> <r_i_glide_hbond>
-0.2

> <r_i_glide_metal>
0

> <r_i_glide_rewards>
-1.98606409542171

> <r_i_glide_evdw>
-23.1630020141602

> <r_i_glide_ecoul>
-2.61608982086182

> <r_i_glide_erotb>
0.844395278781436

> <r_i_glide_esite>
-0.0135008932083417

> <r_i_glide_emodel>
-31.0338053913911

> <r_i_glide_energy>
-25.779091835022

> <r_i_glide_einternal>
4.381263256073

> <i_i_glide_confnum>
65

> <i_i_glide_posenum>
81

> <r_i_glide_eff_state_penalty>
0

> <r_glide_shape_similarity>
0.869911313056946

> <i_phase_Input_Structure_Number>
42

> <i_phase_Structure_Number>
42

> <r_phase_Similarity_to_Reference>
0.862263306355871

> <i_phase_Reference_Structure>
1

> <s_phase_Alignment_Method>
snapped core

> <s_phase_Alignment_Reason>


> <s_phase_Core_SMARTS>
a1aaaaa1AAAAa(aa2)a(a23)aaaa3

> <s_f3d_frozen_atoms>
17 18 19 20 21 16 15 14 13 12 11 4 34 10 5 9 8 7 6 32 38 37 36 33 30 31 28 29 26 27 35 25 24 23 22

> <s_m_subgroup_title>
align_ligands_1->glide-dock_SP_redock_4245_lib1

> <s_m_subgroupid>
align_ligands_1->glide-dock_SP_redock_4245_lib11

> <b_m_subgroup_collapsed>
0

$$$$
