45
                    3D
 Schrodinger Suite 2021-2.
 48 51  0  0  1  0            999 V2000
    3.0900  -47.2504    6.7747 O   0  0  0  0  0  0
    3.0863  -48.4855    6.5974 C   0  0  0  0  0  0
    4.1511  -49.1309    6.6518 O   0  5  0  0  0  0
    1.7953  -49.1810    6.3522 C   0  0  0  0  0  0
    0.0202  -50.9573    6.3447 C   0  0  0  0  0  0
   -0.8407  -52.0632    6.4168 C   0  0  0  0  0  0
   -2.2170  -51.8957    6.1858 C   0  0  0  0  0  0
   -2.7295  -50.6268    5.8842 C   0  0  0  0  0  0
   -1.8581  -49.5384    5.7909 C   0  0  0  0  0  0
   -0.4683  -49.6764    6.0068 C   0  0  0  0  0  0
    0.5734  -48.7000    5.9545 C   0  0  0  0  0  0
    0.2448  -47.3095    5.6230 C   0  0  0  0  0  0
   -0.1713  -46.7848    6.9543 C   0  0  0  0  0  0
   -0.7090  -45.4534    6.9809 C   0  0  0  0  0  0
   -1.9563  -45.4326    6.3519 O   0  0  0  0  0  0
   -3.0626  -45.1684    7.0920 C   0  0  0  0  0  0
   -5.6579  -44.8869    8.0913 C   0  0  0  0  0  0
   -4.7420  -45.7252    8.7536 C   0  0  0  0  0  0
   -3.4344  -45.8754    8.2484 C   0  0  0  0  0  0
   -0.4659  -53.0401    6.6786 H   0  0  0  0  0  0
   -2.8879  -52.7360    6.2507 H   0  0  0  0  0  0
   -3.7837  -50.5040    5.6926 H   0  0  0  0  0  0
   -2.2535  -48.5566    5.5865 H   0  0  0  0  0  0
    1.0840  -46.8041    5.1492 H   0  0  0  0  0  0
   -0.5475  -47.3207    4.8743 H   0  0  0  0  0  0
   -0.9963  -47.3867    7.3140 H   0  0  0  0  0  0
    0.6321  -46.8984    7.6820 H   0  0  0  0  0  0
   -0.8050  -45.0625    7.9914 H   0  0  0  0  0  0
   -0.0532  -44.7791    6.4320 H   0  0  0  0  0  0
   -2.6852  -46.4401    8.7860 H   0  0  0  0  0  0
   -5.2664  -44.1936    6.9412 C   0  0  0  0  0  0
   -3.9523  -44.2831    6.4818 C   0  0  0  0  0  0
   -3.5307  -43.4176    5.2791 C   0  0  0  0  0  0
   -4.6022  -42.4565    4.7391 C   0  0  0  0  0  0
   -6.0053  -43.0790    4.7745 C   0  0  0  0  0  0
   -6.3273  -43.3679    6.2047 C   0  0  0  0  0  0
   -5.0455  -46.2701    9.6318 H   0  0  0  0  0  0
   -6.6755  -44.8518    8.4456 H   0  0  0  0  0  0
   -2.6921  -42.8018    5.5335 H   0  0  0  0  0  0
   -3.2093  -44.0481    4.4481 H   0  0  0  0  0  0
   -4.3380  -42.1421    3.7354 H   0  0  0  0  0  0
   -4.6214  -41.5541    5.3399 H   0  0  0  0  0  0
   -6.0120  -43.9886    4.1792 H   0  0  0  0  0  0
   -6.7380  -42.4173    4.3177 H   0  0  0  0  0  0
   -7.2784  -43.8975    6.2203 H   0  0  0  0  0  0
   -6.4865  -42.4348    6.7452 H   0  0  0  0  0  0
    1.7525  -50.8931    6.6326 N   0  0  0  0  0  0
    2.5803  -51.3870    6.9477 H   0  0  0  0  0  0
  1  2  2  0  0  0
  2  3  1  0  0  0
  2  4  1  0  0  0
  4 11  2  0  0  0
  4 47  1  0  0  0
  5  6  1  0  0  0
  5 10  2  0  0  0
  5 47  1  0  0  0
  6  7  2  0  0  0
  6 20  1  0  0  0
  7  8  1  0  0  0
  7 21  1  0  0  0
  8  9  2  0  0  0
  8 22  1  0  0  0
  9 10  1  0  0  0
  9 23  1  0  0  0
 10 11  1  0  0  0
 11 12  1  0  0  0
 12 24  1  0  0  0
 12 25  1  0  0  0
 12 13  1  0  0  0
 13 14  1  0  0  0
 13 26  1  0  0  0
 13 27  1  0  0  0
 14 15  1  0  0  0
 14 28  1  0  0  0
 14 29  1  0  0  0
 15 16  1  0  0  0
 16 19  2  0  0  0
 16 32  1  0  0  0
 17 18  2  0  0  0
 17 31  1  0  0  0
 17 38  1  0  0  0
 18 19  1  0  0  0
 18 37  1  0  0  0
 19 30  1  0  0  0
 31 32  2  0  0  0
 31 36  1  0  0  0
 32 33  1  0  0  0
 33 34  1  0  0  0
 33 39  1  0  0  0
 33 40  1  0  0  0
 34 35  1  0  0  0
 34 41  1  0  0  0
 34 42  1  0  0  0
 35 36  1  0  0  0
 35 43  1  0  0  0
 35 44  1  0  0  0
 36 45  1  0  0  0
 36 46  1  0  0  0
 47 48  1  0  0  0
M  CHG  1   3  -1
M  END
> <s_m_entry_id>
154

> <s_m_entry_name>
MCL1_45.1

> <r_m_Molecular_weight>
348.42554

> <s_m_Source_Path>
C:\Users\yujiethinkpad\Desktop\05A\MCL1\original

> <s_m_Source_File>
MCL1_45.sdf

> <r_user_dG.exp>
-8.95356461676206

> <s_fepmapper_entryid>
39

> <i_fepmapper_bias>
0

> <i_fepmapper_affinity>
1

> <r_fepmapper_exp_dG>
-8.95356461676

> <i_fepmapper_unit>
1

> <i_m_Source_File_Index>
1

> <s_m_job_name>
align_ligands_1

> <s_i_glide_gridfile>
glide-grid_MCL1

> <i_i_glide_lignum>
29

> <i_i_glide_rotatable_bonds>
6

> <r_i_docking_score>
-8.93794831836637

> <r_i_glide_ligand_efficiency>
-0.343767243014091

> <r_i_glide_ligand_efficiency_sa>
-1.01840910477046

> <r_i_glide_ligand_efficiency_ln>
-2.09904783476783

> <r_i_glide_gscore>
-8.93794831836637

> <r_i_glide_lipo>
-5.40849967438052

> <r_i_glide_hbond>
-0.254129885230307

> <r_i_glide_metal>
0

> <r_i_glide_rewards>
-1.93479041231352

> <r_i_glide_evdw>
-33.7966957092285

> <r_i_glide_ecoul>
-1.85303866863251

> <r_i_glide_erotb>
0.627262239314276

> <r_i_glide_esite>
0

> <r_i_glide_emodel>
-41.368332659532

> <r_i_glide_energy>
-35.649734377861

> <r_i_glide_einternal>
7.03459644317627

> <i_i_glide_confnum>
9

> <i_i_glide_posenum>
83

> <r_i_glide_eff_state_penalty>
0

> <r_glide_shape_similarity>
0.856975376605988

> <i_phase_Input_Structure_Number>
2

> <i_phase_Structure_Number>
2

> <r_phase_Similarity_to_Reference>
0.851914054734439

> <i_phase_Reference_Structure>
1

> <s_phase_Alignment_Method>
snapped core

> <s_phase_Alignment_Reason>


> <s_phase_Core_SMARTS>
a1aaaaa1AAAAa(aa2)a(a23)aaaa3

> <s_f3d_frozen_atoms>
19 18 17 31 32 16 15 14 13 12 11 4 47 10 5 9 8 7 6 30 37 38 28 29 26 27 24 25 48 23 22 21 20

> <s_m_subgroup_title>
align_ligands_1->glide-dock_SP_redock_4245_lib1

> <s_m_subgroupid>
align_ligands_1->glide-dock_SP_redock_4245_lib11

> <b_m_subgroup_collapsed>
0

$$$$
