47
                    3D
 Schrodinger Suite 2021-2.
 43 46  0  0  1  0            999 V2000
    3.0900  -47.2504    6.7747 O   0  0  0  0  0  0
    3.0863  -48.4855    6.5974 C   0  0  0  0  0  0
    4.1511  -49.1309    6.6518 O   0  5  0  0  0  0
    1.7953  -49.1810    6.3522 C   0  0  0  0  0  0
    0.0202  -50.9573    6.3447 C   0  0  0  0  0  0
   -0.8407  -52.0632    6.4168 C   0  0  0  0  0  0
   -2.2170  -51.8957    6.1858 C   0  0  0  0  0  0
   -2.7295  -50.6268    5.8842 C   0  0  0  0  0  0
   -1.8581  -49.5384    5.7909 C   0  0  0  0  0  0
   -0.4683  -49.6764    6.0068 C   0  0  0  0  0  0
    0.5734  -48.7000    5.9545 C   0  0  0  0  0  0
    0.2448  -47.3095    5.6230 C   0  0  0  0  0  0
   -0.1713  -46.7848    6.9543 C   0  0  0  0  0  0
   -0.7090  -45.4534    6.9809 C   0  0  0  0  0  0
   -1.9563  -45.4326    6.3519 O   0  0  0  0  0  0
   -3.0626  -45.1684    7.0920 C   0  0  0  0  0  0
   -5.2664  -44.1936    6.9412 C   0  0  0  0  0  0
   -3.9523  -44.2831    6.4818 C   0  0  0  0  0  0
   -0.4484  -53.0374    6.6698 H   0  0  0  0  0  0
   -2.8911  -52.7380    6.2653 H   0  0  0  0  0  0
   -3.7853  -50.4974    5.6949 H   0  0  0  0  0  0
   -2.2519  -48.5546    5.5682 H   0  0  0  0  0  0
    1.1155  -46.8223    5.1847 H   0  0  0  0  0  0
   -0.5016  -47.2901    4.8349 H   0  0  0  0  0  0
   -0.9230  -47.4261    7.4117 H   0  0  0  0  0  0
    0.6870  -46.7883    7.6266 H   0  0  0  0  0  0
   -0.8822  -45.1390    8.0101 H   0  0  0  0  0  0
   -0.0164  -44.7674    6.4847 H   0  0  0  0  0  0
   -3.6170  -43.6874    5.6492 H   0  0  0  0  0  0
   -3.4344  -45.8754    8.2484 C   0  0  0  0  0  0
   -6.0089  -43.6404    6.3797 H   0  0  0  0  0  0
   -4.7420  -45.7252    8.7536 C   0  0  0  0  0  0
   -5.6579  -44.8869    8.0913 C   0  0  0  0  0  0
   -6.9237  -44.7729    8.5257 N   0  0  0  0  0  0
   -7.2597  -45.5011    9.6039 C   0  0  0  0  0  0
   -6.3773  -46.3007   10.3600 C   0  0  0  0  0  0
   -5.0985  -46.4760    9.8867 C   0  0  0  0  0  0
   -8.2766  -45.4059    9.9174 H   0  0  0  0  0  0
   -6.7014  -46.7672   11.2734 H   0  0  0  0  0  0
   -4.4035  -47.1415   10.3875 H   0  0  0  0  0  0
   -2.7598  -46.5589    8.7398 H   0  0  0  0  0  0
    1.7525  -50.8931    6.6326 N   0  0  0  0  0  0
    2.5869  -51.4009    6.9134 H   0  0  0  0  0  0
  1  2  2  0  0  0
  2  3  1  0  0  0
  2  4  1  0  0  0
  4 11  2  0  0  0
  4 42  1  0  0  0
  5  6  1  0  0  0
  5 10  2  0  0  0
  5 42  1  0  0  0
  6  7  2  0  0  0
  6 19  1  0  0  0
  7  8  1  0  0  0
  7 20  1  0  0  0
  8  9  2  0  0  0
  8 21  1  0  0  0
  9 10  1  0  0  0
  9 22  1  0  0  0
 10 11  1  0  0  0
 11 12  1  0  0  0
 12 23  1  0  0  0
 12 24  1  0  0  0
 12 13  1  0  0  0
 13 14  1  0  0  0
 13 25  1  0  0  0
 13 26  1  0  0  0
 14 15  1  0  0  0
 14 27  1  0  0  0
 14 28  1  0  0  0
 15 16  1  0  0  0
 16 18  2  0  0  0
 16 30  1  0  0  0
 17 18  1  0  0  0
 17 31  1  0  0  0
 17 33  2  0  0  0
 18 29  1  0  0  0
 30 32  2  0  0  0
 30 41  1  0  0  0
 32 33  1  0  0  0
 32 37  1  0  0  0
 33 34  1  0  0  0
 34 35  2  0  0  0
 35 36  1  0  0  0
 35 38  1  0  0  0
 36 37  2  0  0  0
 36 39  1  0  0  0
 37 40  1  0  0  0
 42 43  1  0  0  0
M  CHG  1   3  -1
M  END
> <s_m_entry_id>
178

> <s_m_entry_name>
MCL1_47.1

> <r_m_Molecular_weight>
345.38124

> <s_m_Source_Path>
C:\Users\yujiethinkpad\Desktop\05A\MCL1\original

> <s_m_Source_File>
MCL1_47.sdf

> <r_user_dG.exp>
-5.77553168796231

> <s_fepmapper_entryid>
33

> <i_fepmapper_bias>
0

> <i_fepmapper_affinity>
1

> <r_fepmapper_exp_dG>
-5.77553168796

> <i_fepmapper_unit>
1

> <i_m_Source_File_Index>
1

> <s_m_job_name>
align_ligands_1

> <s_i_glide_gridfile>
glide-grid_MCL1

> <i_i_glide_lignum>
31

> <i_i_glide_rotatable_bonds>
6

> <r_i_docking_score>
-8.06801330090843

> <r_i_glide_ligand_efficiency>
-0.310308203881094

> <r_i_glide_ligand_efficiency_sa>
-0.919286832993917

> <r_i_glide_ligand_efficiency_ln>
-1.89474645040745

> <r_i_glide_gscore>
-8.06801330090843

> <r_i_glide_lipo>
-4.87664966976505

> <r_i_glide_hbond>
-0.2

> <r_i_glide_metal>
0

> <r_i_glide_rewards>
-1.91001614858142

> <r_i_glide_evdw>
-25.1631240844727

> <r_i_glide_ecoul>
-2.95809030532837

> <r_i_glide_erotb>
0.637114732374426

> <r_i_glide_esite>
-0.0165924649134962

> <r_i_glide_emodel>
-37.9143367544644

> <r_i_glide_energy>
-28.121214389801

> <r_i_glide_einternal>
3.5733437538147

> <i_i_glide_confnum>
51

> <i_i_glide_posenum>
31

> <r_i_glide_eff_state_penalty>
0

> <r_glide_shape_similarity>
0.889186799526215

> <i_phase_Input_Structure_Number>
26

> <i_phase_Structure_Number>
26

> <r_phase_Similarity_to_Reference>
0.894784835993807

> <i_phase_Reference_Structure>
1

> <s_phase_Alignment_Method>
snapped core

> <s_phase_Alignment_Reason>


> <s_phase_Core_SMARTS>
a1aaaaa1AAAAa(aa2)a(a23)aaaa3

> <s_f3d_frozen_atoms>
30 32 33 17 18 16 15 14 13 12 11 4 42 10 5 9 8 7 6 41 31 29 27 28 25 26 23 24 43 22 21 20 19

> <s_m_subgroup_title>
align_ligands_1->glide-dock_SP_redock_4245_lib1

> <s_m_subgroupid>
align_ligands_1->glide-dock_SP_redock_4245_lib11

> <b_m_subgroup_collapsed>
0

$$$$
