56
                    3D
 Schrodinger Suite 2021-2.
 47 49  0  0  1  0            999 V2000
    3.0900  -47.2504    6.7747 O   0  0  0  0  0  0
    3.0863  -48.4855    6.5974 C   0  0  0  0  0  0
    4.1511  -49.1309    6.6518 O   0  5  0  0  0  0
    1.7953  -49.1810    6.3522 C   0  0  0  0  0  0
    0.0202  -50.9573    6.3447 C   0  0  0  0  0  0
   -0.8407  -52.0632    6.4168 C   0  0  0  0  0  0
   -2.2170  -51.8957    6.1858 C   0  0  0  0  0  0
   -2.7295  -50.6268    5.8842 C   0  0  0  0  0  0
   -1.8581  -49.5384    5.7909 C   0  0  0  0  0  0
   -0.4683  -49.6764    6.0068 C   0  0  0  0  0  0
    0.5734  -48.7000    5.9545 C   0  0  0  0  0  0
    0.2448  -47.3095    5.6230 C   0  0  0  0  0  0
   -0.1713  -46.7848    6.9543 C   0  0  0  0  0  0
   -0.7090  -45.4534    6.9809 C   0  0  0  0  0  0
   -1.9563  -45.4326    6.3519 O   0  0  0  0  0  0
   -3.0626  -45.1684    7.0920 C   0  0  0  0  0  0
   -3.4344  -45.8754    8.2484 C   0  0  0  0  0  0
   -4.7420  -45.7252    8.7536 C   0  0  0  0  0  0
   -5.1804  -46.4948    9.9657 C   0  0  0  0  0  0
   -5.6579  -44.8869    8.0913 C   0  0  0  0  0  0
   -7.2744  -44.6961    8.6464 Cl  0  0  0  0  0  0
   -5.2664  -44.1936    6.9412 C   0  0  0  0  0  0
   -6.2552  -43.4525    6.0702 C   0  0  0  0  0  0
   -3.9523  -44.2831    6.4818 C   0  0  0  0  0  0
   -0.4436  -53.0349    6.6908 H   0  0  0  0  0  0
   -2.8823  -52.7440    6.2491 H   0  0  0  0  0  0
   -3.7856  -50.5033    5.7086 H   0  0  0  0  0  0
   -2.2438  -48.5523    5.5558 H   0  0  0  0  0  0
   -0.5038  -47.2749    4.8308 H   0  0  0  0  0  0
    1.1243  -46.8300    5.1985 H   0  0  0  0  0  0
    0.6752  -46.7922    7.6230 H   0  0  0  0  0  0
   -0.9231  -47.4209    7.4063 H   0  0  0  0  0  0
   -0.0277  -44.7452    6.5175 H   0  0  0  0  0  0
   -0.9106  -45.1466    8.0026 H   0  0  0  0  0  0
   -2.7555  -46.5767    8.6979 H   0  0  0  0  0  0
   -4.3741  -47.1282   10.3360 H   0  0  0  0  0  0
   -6.0276  -47.1355    9.7269 H   0  0  0  0  0  0
   -5.4774  -45.8080   10.7581 H   0  0  0  0  0  0
   -5.9628  -43.5320    5.0223 H   0  0  0  0  0  0
   -7.2584  -43.8734    6.1342 H   0  0  0  0  0  0
   -6.3131  -42.3938    6.2986 H   0  0  0  0  0  0
   -3.6325  -43.7334    5.6262 H   0  0  0  0  0  0
    2.8651  -51.7485    7.0438 C   0  0  0  0  0  0
    2.5549  -52.7892    7.1177 H   0  0  0  0  0  0
    3.6664  -51.6910    6.3065 H   0  0  0  0  0  0
    3.2417  -51.4261    8.0156 H   0  0  0  0  0  0
    1.7525  -50.8931    6.6326 N   0  0  0  0  0  0
  1  2  2  0  0  0
  2  3  1  0  0  0
  2  4  1  0  0  0
  4 11  2  0  0  0
  4 47  1  0  0  0
  5  6  1  0  0  0
  5 10  2  0  0  0
  5 47  1  0  0  0
  6  7  2  0  0  0
  6 25  1  0  0  0
  7  8  1  0  0  0
  7 26  1  0  0  0
  8  9  2  0  0  0
  8 27  1  0  0  0
  9 10  1  0  0  0
  9 28  1  0  0  0
 10 11  1  0  0  0
 11 12  1  0  0  0
 12 29  1  0  0  0
 12 30  1  0  0  0
 12 13  1  0  0  0
 13 14  1  0  0  0
 13 31  1  0  0  0
 13 32  1  0  0  0
 14 15  1  0  0  0
 14 33  1  0  0  0
 14 34  1  0  0  0
 15 16  1  0  0  0
 16 17  1  0  0  0
 16 24  2  0  0  0
 17 18  2  0  0  0
 17 35  1  0  0  0
 18 19  1  0  0  0
 18 20  1  0  0  0
 19 36  1  0  0  0
 19 37  1  0  0  0
 19 38  1  0  0  0
 20 21  1  0  0  0
 20 22  2  0  0  0
 22 23  1  0  0  0
 22 24  1  0  0  0
 23 39  1  0  0  0
 23 40  1  0  0  0
 23 41  1  0  0  0
 24 42  1  0  0  0
 43 44  1  0  0  0
 43 45  1  0  0  0
 43 46  1  0  0  0
 43 47  1  0  0  0
M  CHG  1   3  -1
M  END
> <s_m_entry_id>
177

> <s_m_entry_name>
MCL1_56.1

> <r_m_Molecular_weight>
370.85942

> <s_m_Source_Path>
C:\Users\yujiethinkpad\Desktop\05A\MCL1\original

> <s_m_Source_File>
MCL1_56.sdf

> <r_user_dG.exp>
-9.25808309585768

> <s_fepmapper_entryid>
35

> <i_fepmapper_bias>
0

> <i_fepmapper_affinity>
1

> <r_fepmapper_exp_dG>
-9.25808309586

> <i_fepmapper_unit>
1

> <i_m_Source_File_Index>
1

> <s_m_job_name>
align_ligands_1

> <s_i_glide_gridfile>
glide-grid_MCL1

> <i_i_glide_lignum>
39

> <i_i_glide_rotatable_bonds>
6

> <r_i_docking_score>
-8.09726520862245

> <r_i_glide_ligand_efficiency>
-0.31143327725471

> <r_i_glide_ligand_efficiency_sa>
-0.922619858436305

> <r_i_glide_ligand_efficiency_ln>
-1.90161616495074

> <r_i_glide_gscore>
-8.09726520862245

> <r_i_glide_lipo>
-4.88278579972606

> <r_i_glide_hbond>
-0.2

> <r_i_glide_metal>
0

> <r_i_glide_rewards>
-1.83494095606595

> <r_i_glide_evdw>
-28.496129989624

> <r_i_glide_ecoul>
-2.88217329978943

> <r_i_glide_erotb>
0.70154775679004

> <r_i_glide_esite>
-0.0239537151708613

> <r_i_glide_emodel>
-46.7294855752464

> <r_i_glide_energy>
-31.3783032894135

> <r_i_glide_einternal>
3.92348694801331

> <i_i_glide_confnum>
259

> <i_i_glide_posenum>
326

> <r_i_glide_eff_state_penalty>
0

> <r_glide_shape_similarity>
0.934670925140381

> <i_phase_Input_Structure_Number>
25

> <i_phase_Structure_Number>
25

> <r_phase_Similarity_to_Reference>
0.943417821695101

> <i_phase_Reference_Structure>
1

> <s_phase_Alignment_Method>
snapped core

> <s_phase_Alignment_Reason>


> <s_phase_Core_SMARTS>
a1aaaaa1AAAAa(aa2)a(a23)aaaa3

> <s_f3d_frozen_atoms>
17 18 20 22 24 16 15 14 13 12 11 4 47 10 5 9 8 7 6 35 21 42 33 34 31 32 29 30 28 27 26 25

> <s_m_subgroup_title>
align_ligands_1->glide-dock_SP_redock_4245_lib1

> <s_m_subgroupid>
align_ligands_1->glide-dock_SP_redock_4245_lib11

> <b_m_subgroup_collapsed>
0

$$$$
