57
                    3D
 Schrodinger Suite 2021-2.
 47 50  0  0  1  0            999 V2000
    3.0900  -47.2504    6.7747 O   0  0  0  0  0  0
    3.0863  -48.4855    6.5974 C   0  0  0  0  0  0
    4.1511  -49.1309    6.6518 O   0  5  0  0  0  0
    1.7953  -49.1810    6.3522 C   0  0  0  0  0  0
    0.0202  -50.9573    6.3447 C   0  0  0  0  0  0
   -0.8407  -52.0632    6.4168 C   0  0  0  0  0  0
   -2.2170  -51.8957    6.1858 C   0  0  0  0  0  0
   -2.7295  -50.6268    5.8842 C   0  0  0  0  0  0
   -1.8581  -49.5384    5.7909 C   0  0  0  0  0  0
   -0.4683  -49.6764    6.0068 C   0  0  0  0  0  0
    0.5734  -48.7000    5.9545 C   0  0  0  0  0  0
    0.2448  -47.3095    5.6230 C   0  0  0  0  0  0
   -0.1713  -46.7848    6.9543 C   0  0  0  0  0  0
   -0.7090  -45.4534    6.9809 C   0  0  0  0  0  0
   -1.9563  -45.4326    6.3519 O   0  0  0  0  0  0
   -3.0626  -45.1684    7.0920 C   0  0  0  0  0  0
   -5.6579  -44.8869    8.0913 C   0  0  0  0  0  0
   -4.7420  -45.7252    8.7536 C   0  0  0  0  0  0
   -3.4344  -45.8754    8.2484 C   0  0  0  0  0  0
   -0.4601  -53.0386    6.6737 H   0  0  0  0  0  0
   -2.8861  -52.7418    6.2473 H   0  0  0  0  0  0
   -3.7882  -50.4991    5.7104 H   0  0  0  0  0  0
   -2.2615  -48.5581    5.5820 H   0  0  0  0  0  0
    1.0849  -46.7785    5.1773 H   0  0  0  0  0  0
   -0.5663  -47.2909    4.8962 H   0  0  0  0  0  0
   -1.0342  -47.4017    7.2331 H   0  0  0  0  0  0
    0.6908  -46.8270    7.6282 H   0  0  0  0  0  0
   -0.7727  -45.1925    8.0372 H   0  0  0  0  0  0
    0.0122  -44.6923    6.7465 H   0  0  0  0  0  0
   -2.7324  -46.5039    8.7717 H   0  0  0  0  0  0
   -5.2664  -44.1936    6.9412 C   0  0  0  0  0  0
   -3.9523  -44.2831    6.4818 C   0  0  0  0  0  0
   -3.5284  -43.5065    5.3658 C   0  0  0  0  0  0
   -4.4765  -42.7961    4.5961 C   0  0  0  0  0  0
   -5.8208  -42.7164    5.0431 C   0  0  0  0  0  0
   -6.2232  -43.4931    6.1688 C   0  0  0  0  0  0
   -2.5065  -43.5528    5.0168 H   0  0  0  0  0  0
   -4.1703  -42.2797    3.6983 H   0  0  0  0  0  0
   -6.5110  -42.0594    4.5369 H   0  0  0  0  0  0
   -7.2756  -43.6031    6.3895 H   0  0  0  0  0  0
   -5.0248  -46.2782    9.6342 H   0  0  0  0  0  0
   -6.6902  -44.8709    8.4074 H   0  0  0  0  0  0
    2.8651  -51.7485    7.0438 C   0  0  0  0  0  0
    3.6664  -51.6910    6.3065 H   0  0  0  0  0  0
    3.2417  -51.4261    8.0156 H   0  0  0  0  0  0
    2.5549  -52.7892    7.1177 H   0  0  0  0  0  0
    1.7525  -50.8931    6.6326 N   0  0  0  0  0  0
  1  2  2  0  0  0
  2  3  1  0  0  0
  2  4  1  0  0  0
  4 11  2  0  0  0
  4 47  1  0  0  0
  5  6  1  0  0  0
  5 10  2  0  0  0
  5 47  1  0  0  0
  6  7  2  0  0  0
  6 20  1  0  0  0
  7  8  1  0  0  0
  7 21  1  0  0  0
  8  9  2  0  0  0
  8 22  1  0  0  0
  9 10  1  0  0  0
  9 23  1  0  0  0
 10 11  1  0  0  0
 11 12  1  0  0  0
 12 24  1  0  0  0
 12 25  1  0  0  0
 12 13  1  0  0  0
 13 14  1  0  0  0
 13 26  1  0  0  0
 13 27  1  0  0  0
 14 15  1  0  0  0
 14 28  1  0  0  0
 14 29  1  0  0  0
 15 16  1  0  0  0
 16 19  2  0  0  0
 16 32  1  0  0  0
 17 18  2  0  0  0
 17 31  1  0  0  0
 17 42  1  0  0  0
 18 19  1  0  0  0
 18 41  1  0  0  0
 19 30  1  0  0  0
 31 32  2  0  0  0
 31 36  1  0  0  0
 32 33  1  0  0  0
 33 34  2  0  0  0
 33 37  1  0  0  0
 34 35  1  0  0  0
 34 38  1  0  0  0
 35 36  2  0  0  0
 35 39  1  0  0  0
 36 40  1  0  0  0
 43 44  1  0  0  0
 43 45  1  0  0  0
 43 46  1  0  0  0
 43 47  1  0  0  0
M  CHG  1   3  -1
M  END
> <s_m_entry_id>
162

> <s_m_entry_name>
MCL1_57.1

> <r_m_Molecular_weight>
358.42075

> <s_m_Source_Path>
C:\Users\yujiethinkpad\Desktop\05A\MCL1\original

> <s_m_Source_File>
MCL1_57.sdf

> <r_user_dG.exp>
-9.03887132268158

> <s_fepmapper_entryid>
34

> <i_fepmapper_bias>
0

> <i_fepmapper_affinity>
1

> <r_fepmapper_exp_dG>
-9.03887132268

> <i_fepmapper_unit>
1

> <i_m_Source_File_Index>
1

> <s_m_job_name>
align_ligands_1

> <s_i_glide_gridfile>
glide-grid_MCL1

> <i_i_glide_lignum>
40

> <i_i_glide_rotatable_bonds>
6

> <r_i_docking_score>
-8.63277549434058

> <r_i_glide_ligand_efficiency>
-0.319732425716318

> <r_i_glide_ligand_efficiency_sa>
-0.959197276095167

> <r_i_glide_ligand_efficiency_ln>
-2.00956781265536

> <r_i_glide_gscore>
-8.63277549434058

> <r_i_glide_lipo>
-5.29305859719107

> <r_i_glide_hbond>
-0.305101425960211

> <r_i_glide_metal>
0

> <r_i_glide_rewards>
-2.03062207060302

> <r_i_glide_evdw>
-26.1850032806396

> <r_i_glide_ecoul>
-1.90381038188934

> <r_i_glide_erotb>
0.596475082770476

> <r_i_glide_esite>
-0.00564676204136052

> <r_i_glide_emodel>
-35.7927830065387

> <r_i_glide_energy>
-28.088813662529

> <r_i_glide_einternal>
2.15502667427063

> <i_i_glide_confnum>
11

> <i_i_glide_posenum>
20

> <r_i_glide_eff_state_penalty>
0

> <r_glide_shape_similarity>
0.861521244049072

> <i_phase_Input_Structure_Number>
10

> <i_phase_Structure_Number>
10

> <r_phase_Similarity_to_Reference>
0.825985205938956

> <i_phase_Reference_Structure>
1

> <s_phase_Alignment_Method>
snapped core

> <s_phase_Alignment_Reason>


> <s_phase_Core_SMARTS>
a1aaaaa1AAAAa(aa2)a(a23)aaaa3

> <s_f3d_frozen_atoms>
19 18 17 31 32 16 15 14 13 12 11 4 47 10 5 9 8 7 6 30 41 42 28 29 26 27 24 25 23 22 21 20

> <s_m_subgroup_title>
align_ligands_1->glide-dock_SP_redock_4245_lib1

> <s_m_subgroupid>
align_ligands_1->glide-dock_SP_redock_4245_lib11

> <b_m_subgroup_collapsed>
0

$$$$
