62
                    3D
 Schrodinger Suite 2021-2.
 43 46  0  0  1  0            999 V2000
    3.0900  -47.2504    6.7747 O   0  0  0  0  0  0
    3.0863  -48.4855    6.5974 C   0  0  0  0  0  0
    4.1511  -49.1309    6.6518 O   0  5  0  0  0  0
    1.7953  -49.1810    6.3522 C   0  0  0  0  0  0
    1.7525  -50.8931    6.6326 S   0  0  0  0  0  0
    0.0202  -50.9573    6.3447 C   0  0  0  0  0  0
   -0.8407  -52.0632    6.4168 C   0  0  0  0  0  0
   -2.2170  -51.8957    6.1858 C   0  0  0  0  0  0
   -2.7295  -50.6268    5.8842 C   0  0  0  0  0  0
   -1.8581  -49.5384    5.7909 C   0  0  0  0  0  0
   -0.4683  -49.6764    6.0068 C   0  0  0  0  0  0
    0.5734  -48.7000    5.9545 C   0  0  0  0  0  0
    0.2448  -47.3095    5.6230 C   0  0  0  0  0  0
   -0.1713  -46.7848    6.9543 C   0  0  0  0  0  0
   -0.7090  -45.4534    6.9809 C   0  0  0  0  0  0
   -1.9563  -45.4326    6.3519 O   0  0  0  0  0  0
   -3.0626  -45.1684    7.0920 C   0  0  0  0  0  0
   -5.6579  -44.8869    8.0913 C   0  0  0  0  0  0
   -4.7420  -45.7252    8.7536 C   0  0  0  0  0  0
   -3.4344  -45.8754    8.2484 C   0  0  0  0  0  0
   -0.4441  -53.0332    6.6816 H   0  0  0  0  0  0
   -2.8965  -52.7305    6.2783 H   0  0  0  0  0  0
   -3.7952  -50.4938    5.7638 H   0  0  0  0  0  0
   -2.6037  -48.0186    5.5311 Cl  0  0  0  0  0  0
    1.1679  -46.8549    5.2641 H   0  0  0  0  0  0
   -0.4153  -47.2242    4.7634 H   0  0  0  0  0  0
   -0.8674  -47.4845    7.3998 H   0  0  0  0  0  0
    0.7590  -46.7611    7.4879 H   0  0  0  0  0  0
   -0.6313  -45.0674    7.9844 H   0  0  0  0  0  0
   -0.0360  -44.8363    6.3911 H   0  0  0  0  0  0
   -2.7675  -46.5558    8.7502 H   0  0  0  0  0  0
   -5.2664  -44.1936    6.9412 C   0  0  0  0  0  0
   -3.9523  -44.2831    6.4818 C   0  0  0  0  0  0
   -3.5464  -43.4356    5.3965 C   0  0  0  0  0  0
   -4.5139  -42.7285    4.6526 C   0  0  0  0  0  0
   -5.8737  -42.7728    5.0369 C   0  0  0  0  0  0
   -6.2563  -43.5388    6.1794 C   0  0  0  0  0  0
   -2.5309  -43.4678    5.0349 H   0  0  0  0  0  0
   -4.2031  -42.1750    3.7790 H   0  0  0  0  0  0
   -6.6065  -42.1821    4.5066 H   0  0  0  0  0  0
   -7.2947  -43.6688    6.4320 H   0  0  0  0  0  0
   -5.0473  -46.2967    9.6100 H   0  0  0  0  0  0
   -6.6921  -44.8749    8.4053 H   0  0  0  0  0  0
  1  2  2  0  0  0
  2  3  1  0  0  0
  2  4  1  0  0  0
  4  5  1  0  0  0
  4 12  2  0  0  0
  5  6  1  0  0  0
  6  7  1  0  0  0
  6 11  2  0  0  0
  7  8  2  0  0  0
  7 21  1  0  0  0
  8  9  1  0  0  0
  8 22  1  0  0  0
  9 10  2  0  0  0
  9 23  1  0  0  0
 10 11  1  0  0  0
 10 24  1  0  0  0
 11 12  1  0  0  0
 12 13  1  0  0  0
 13 25  1  0  0  0
 13 26  1  0  0  0
 13 14  1  0  0  0
 14 15  1  0  0  0
 14 27  1  0  0  0
 14 28  1  0  0  0
 15 16  1  0  0  0
 15 29  1  0  0  0
 15 30  1  0  0  0
 16 17  1  0  0  0
 17 20  2  0  0  0
 17 33  1  0  0  0
 18 19  2  0  0  0
 18 32  1  0  0  0
 18 43  1  0  0  0
 19 20  1  0  0  0
 19 42  1  0  0  0
 20 31  1  0  0  0
 32 33  2  0  0  0
 32 37  1  0  0  0
 33 34  1  0  0  0
 34 35  2  0  0  0
 34 38  1  0  0  0
 35 36  1  0  0  0
 35 39  1  0  0  0
 36 37  2  0  0  0
 36 40  1  0  0  0
 37 41  1  0  0  0
M  CHG  1   3  -1
M  END
> <s_m_entry_id>
157

> <s_m_entry_name>
MCL1_62.1

> <r_m_Molecular_weight>
395.88802

> <s_m_Source_Path>
C:\Users\yujiethinkpad\Desktop\05A\MCL1\original

> <s_m_Source_File>
MCL1_62.sdf

> <r_user_dG.exp>
-7.95565704541698

> <s_fepmapper_entryid>
24

> <i_fepmapper_bias>
0

> <i_fepmapper_affinity>
1

> <r_fepmapper_exp_dG>
-7.95565704542

> <i_fepmapper_unit>
1

> <i_m_Source_File_Index>
1

> <s_m_job_name>
align_ligands_1

> <s_i_glide_gridfile>
glide-grid_MCL1

> <i_i_glide_lignum>
2

> <i_i_glide_rotatable_bonds>
6

> <r_i_docking_score>
-8.88124276860842

> <r_i_glide_ligand_efficiency>
-0.328934917355867

> <r_i_glide_ligand_efficiency_sa>
-0.986804750983486

> <r_i_glide_ligand_efficiency_ln>
-2.06740689780175

> <r_i_glide_gscore>
-8.88124276860842

> <r_i_glide_lipo>
-5.62749538620382

> <r_i_glide_hbond>
-0.248112253610163

> <r_i_glide_metal>
0

> <r_i_glide_rewards>
-1.60991359090909

> <r_i_glide_evdw>
-34.7889671325684

> <r_i_glide_ecoul>
-1.00440680980682

> <r_i_glide_erotb>
0.499214537276342

> <r_i_glide_esite>
-0.00482669706224796

> <r_i_glide_emodel>
-34.0362915951393

> <r_i_glide_energy>
-35.7933739423752

> <r_i_glide_einternal>
18.811595916748

> <i_i_glide_confnum>
47

> <i_i_glide_posenum>
12

> <r_i_glide_eff_state_penalty>
0

> <r_glide_shape_similarity>
0.850301921367645

> <i_phase_Input_Structure_Number>
5

> <i_phase_Structure_Number>
5

> <r_phase_Similarity_to_Reference>
0.858289020046988

> <i_phase_Reference_Structure>
1

> <s_phase_Alignment_Method>
snapped core

> <s_phase_Alignment_Reason>


> <s_phase_Core_SMARTS>
a1aaaaa1AAAAa(aa2)a(a23)aaaa3

> <s_f3d_frozen_atoms>
20 19 18 32 33 17 16 15 14 13 12 4 5 11 6 10 9 8 7 31 42 43 29 30 27 28 25 26 24 23 22 21

> <s_m_subgroup_title>
align_ligands_1->glide-dock_SP_redock_4245_lib1

> <s_m_subgroupid>
align_ligands_1->glide-dock_SP_redock_4245_lib11

> <b_m_subgroup_collapsed>
0

$$$$
