66
                    3D
 Schrodinger Suite 2021-2.
 43 46  0  0  1  0            999 V2000
    3.0900  -47.2504    6.7747 O   0  0  0  0  0  0
    3.0863  -48.4855    6.5974 C   0  0  0  0  0  0
    4.1511  -49.1309    6.6518 O   0  5  0  0  0  0
    1.7953  -49.1810    6.3522 C   0  0  0  0  0  0
    1.7525  -50.8931    6.6326 S   0  0  0  0  0  0
    0.0202  -50.9573    6.3447 C   0  0  0  0  0  0
   -0.8407  -52.0632    6.4168 C   0  0  0  0  0  0
   -2.2170  -51.8957    6.1858 C   0  0  0  0  0  0
   -2.7295  -50.6268    5.8842 C   0  0  0  0  0  0
   -1.8581  -49.5384    5.7909 C   0  0  0  0  0  0
   -0.4683  -49.6764    6.0068 C   0  0  0  0  0  0
    0.5734  -48.7000    5.9545 C   0  0  0  0  0  0
    0.2448  -47.3095    5.6230 C   0  0  0  0  0  0
   -0.1713  -46.7848    6.9543 C   0  0  0  0  0  0
   -0.7090  -45.4534    6.9809 C   0  0  0  0  0  0
   -1.9563  -45.4326    6.3519 O   0  0  0  0  0  0
   -3.0626  -45.1684    7.0920 C   0  0  0  0  0  0
   -5.6579  -44.8869    8.0913 C   0  0  0  0  0  0
   -4.7420  -45.7252    8.7536 C   0  0  0  0  0  0
   -3.4344  -45.8754    8.2484 C   0  0  0  0  0  0
   -0.2256  -53.6328    6.8177 Cl  0  0  0  0  0  0
   -2.8845  -52.7429    6.2510 H   0  0  0  0  0  0
   -3.7878  -50.4980    5.7057 H   0  0  0  0  0  0
   -2.2658  -48.5651    5.5601 H   0  0  0  0  0  0
    1.1318  -46.8370    5.1981 H   0  0  0  0  0  0
   -0.4929  -47.2708    4.8212 H   0  0  0  0  0  0
   -0.9466  -47.4298    7.3596 H   0  0  0  0  0  0
    0.6425  -46.9094    7.6645 H   0  0  0  0  0  0
   -0.7856  -45.1910    8.0328 H   0  0  0  0  0  0
    0.0188  -44.7871    6.5144 H   0  0  0  0  0  0
   -2.7557  -46.5321    8.7680 H   0  0  0  0  0  0
   -5.2664  -44.1936    6.9412 C   0  0  0  0  0  0
   -3.9523  -44.2831    6.4818 C   0  0  0  0  0  0
   -3.5482  -43.4276    5.4049 C   0  0  0  0  0  0
   -4.5134  -42.6626    4.7098 C   0  0  0  0  0  0
   -5.8718  -42.6941    5.1063 C   0  0  0  0  0  0
   -6.2679  -43.5311    6.1950 C   0  0  0  0  0  0
   -2.5338  -43.4574    5.0375 H   0  0  0  0  0  0
   -4.2163  -42.0829    3.8480 H   0  0  0  0  0  0
   -6.5909  -42.0474    4.6266 H   0  0  0  0  0  0
   -7.3159  -43.7130    6.3910 H   0  0  0  0  0  0
   -5.0383  -46.2779    9.6249 H   0  0  0  0  0  0
   -6.6865  -44.8537    8.4203 H   0  0  0  0  0  0
  1  2  2  0  0  0
  2  3  1  0  0  0
  2  4  1  0  0  0
  4  5  1  0  0  0
  4 12  2  0  0  0
  5  6  1  0  0  0
  6  7  1  0  0  0
  6 11  2  0  0  0
  7  8  2  0  0  0
  7 21  1  0  0  0
  8  9  1  0  0  0
  8 22  1  0  0  0
  9 10  2  0  0  0
  9 23  1  0  0  0
 10 11  1  0  0  0
 10 24  1  0  0  0
 11 12  1  0  0  0
 12 13  1  0  0  0
 13 25  1  0  0  0
 13 26  1  0  0  0
 13 14  1  0  0  0
 14 15  1  0  0  0
 14 27  1  0  0  0
 14 28  1  0  0  0
 15 16  1  0  0  0
 15 29  1  0  0  0
 15 30  1  0  0  0
 16 17  1  0  0  0
 17 20  2  0  0  0
 17 33  1  0  0  0
 18 19  2  0  0  0
 18 32  1  0  0  0
 18 43  1  0  0  0
 19 20  1  0  0  0
 19 42  1  0  0  0
 20 31  1  0  0  0
 32 33  2  0  0  0
 32 37  1  0  0  0
 33 34  1  0  0  0
 34 35  2  0  0  0
 34 38  1  0  0  0
 35 36  1  0  0  0
 35 39  1  0  0  0
 36 37  2  0  0  0
 36 40  1  0  0  0
 37 41  1  0  0  0
M  CHG  1   3  -1
M  END
> <s_m_entry_id>
161

> <s_m_entry_name>
MCL1_66.1

> <r_m_Molecular_weight>
395.88802

> <s_m_Source_Path>
C:\Users\yujiethinkpad\Desktop\05A\MCL1\original

> <s_m_Source_File>
MCL1_66.sdf

> <r_user_dG.exp>
-8.43167143836328

> <s_fepmapper_entryid>
15

> <i_fepmapper_bias>
0

> <i_fepmapper_affinity>
1

> <r_fepmapper_exp_dG>
-8.43167143836

> <i_fepmapper_unit>
1

> <i_m_Source_File_Index>
1

> <s_m_job_name>
align_ligands_1

> <s_i_glide_gridfile>
glide-grid_MCL1

> <i_i_glide_lignum>
6

> <i_i_glide_rotatable_bonds>
6

> <r_i_docking_score>
-8.78521720055488

> <r_i_glide_ligand_efficiency>
-0.325378414835366

> <r_i_glide_ligand_efficiency_sa>
-0.976135243433704

> <r_i_glide_ligand_efficiency_ln>
-2.04505372866411

> <r_i_glide_gscore>
-8.78521720055488

> <r_i_glide_lipo>
-5.44059733297123

> <r_i_glide_hbond>
-0.259353844874406

> <r_i_glide_metal>
0

> <r_i_glide_rewards>
-1.60991359090909

> <r_i_glide_evdw>
-32.6263656616211

> <r_i_glide_ecoul>
-2.10036420822144

> <r_i_glide_erotb>
0.499214537276342

> <r_i_glide_esite>
-0.0281940547622239

> <r_i_glide_emodel>
-43.0398561895461

> <r_i_glide_energy>
-34.7267298698425

> <r_i_glide_einternal>
5.22086906433105

> <i_i_glide_confnum>
21

> <i_i_glide_posenum>
260

> <r_i_glide_eff_state_penalty>
0

> <r_glide_shape_similarity>
0.873871266841888

> <i_phase_Input_Structure_Number>
9

> <i_phase_Structure_Number>
9

> <r_phase_Similarity_to_Reference>
0.857812225480122

> <i_phase_Reference_Structure>
1

> <s_phase_Alignment_Method>
snapped core

> <s_phase_Alignment_Reason>


> <s_phase_Core_SMARTS>
a1aaaaa1AAAAa(aa2)a(a23)aaaa3

> <s_f3d_frozen_atoms>
20 19 18 32 33 17 16 15 14 13 12 4 5 11 6 10 9 8 7 31 42 43 29 30 27 28 25 26 24 23 22 21

> <s_m_subgroup_title>
align_ligands_1->glide-dock_SP_redock_4245_lib1

> <s_m_subgroupid>
align_ligands_1->glide-dock_SP_redock_4245_lib11

> <b_m_subgroup_collapsed>
0

$$$$
