68
                    3D
 Schrodinger Suite 2021-2.
 43 46  0  0  1  0            999 V2000
    3.0900  -47.2504    6.7747 O   0  0  0  0  0  0
    3.0863  -48.4855    6.5974 C   0  0  0  0  0  0
    4.1511  -49.1309    6.6518 O   0  5  0  0  0  0
    1.7953  -49.1810    6.3522 C   0  0  0  0  0  0
    0.0202  -50.9573    6.3447 C   0  0  0  0  0  0
   -0.8407  -52.0632    6.4168 C   0  0  0  0  0  0
   -2.2170  -51.8957    6.1858 C   0  0  0  0  0  0
   -2.7295  -50.6268    5.8842 C   0  0  0  0  0  0
   -1.8581  -49.5384    5.7909 C   0  0  0  0  0  0
   -0.4683  -49.6764    6.0068 C   0  0  0  0  0  0
    0.5734  -48.7000    5.9545 C   0  0  0  0  0  0
    0.2448  -47.3095    5.6230 C   0  0  0  0  0  0
   -0.1713  -46.7848    6.9543 C   0  0  0  0  0  0
   -0.7090  -45.4534    6.9809 C   0  0  0  0  0  0
   -1.9563  -45.4326    6.3519 O   0  0  0  0  0  0
   -3.0626  -45.1684    7.0920 C   0  0  0  0  0  0
   -5.6579  -44.8869    8.0913 C   0  0  0  0  0  0
   -4.7420  -45.7252    8.7536 C   0  0  0  0  0  0
   -3.4344  -45.8754    8.2484 C   0  0  0  0  0  0
   -0.4595  -53.0360    6.6874 H   0  0  0  0  0  0
   -2.8937  -52.7322    6.2857 H   0  0  0  0  0  0
   -4.4172  -50.4506    5.7317 Cl  0  0  0  0  0  0
   -2.2415  -48.5444    5.6141 H   0  0  0  0  0  0
    1.1361  -46.8216    5.2199 H   0  0  0  0  0  0
   -0.4868  -47.2628    4.8130 H   0  0  0  0  0  0
   -0.6932  -47.4904    7.5849 H   0  0  0  0  0  0
    0.7611  -46.6861    7.5009 H   0  0  0  0  0  0
   -0.6046  -45.0073    7.9697 H   0  0  0  0  0  0
   -0.0052  -45.0174    6.3113 H   0  0  0  0  0  0
   -2.7385  -46.5406    8.6793 H   0  0  0  0  0  0
   -5.2664  -44.1936    6.9412 C   0  0  0  0  0  0
   -3.9523  -44.2831    6.4818 C   0  0  0  0  0  0
   -3.4199  -43.4510    5.4822 C   0  0  0  0  0  0
   -4.2189  -42.3925    5.0313 C   0  0  0  0  0  0
   -5.5948  -42.3095    5.3690 C   0  0  0  0  0  0
   -6.1829  -43.3382    6.2913 C   0  0  0  0  0  0
   -2.3905  -43.5875    5.1323 H   0  0  0  0  0  0
   -3.7696  -41.6653    4.3673 H   0  0  0  0  0  0
   -6.1915  -41.4897    5.0019 H   0  0  0  0  0  0
   -7.2367  -43.3699    6.5267 H   0  0  0  0  0  0
   -5.0329  -46.2425    9.6563 H   0  0  0  0  0  0
   -6.6400  -44.7091    8.5008 H   0  0  0  0  0  0
    1.7525  -50.8931    6.6326 O   0  0  0  0  0  0
  1  2  2  0  0  0
  2  3  1  0  0  0
  2  4  1  0  0  0
  4 11  2  0  0  0
  4 43  1  0  0  0
  5  6  1  0  0  0
  5 10  2  0  0  0
  5 43  1  0  0  0
  6  7  2  0  0  0
  6 20  1  0  0  0
  7  8  1  0  0  0
  7 21  1  0  0  0
  8  9  2  0  0  0
  8 22  1  0  0  0
  9 10  1  0  0  0
  9 23  1  0  0  0
 10 11  1  0  0  0
 11 12  1  0  0  0
 12 24  1  0  0  0
 12 25  1  0  0  0
 12 13  1  0  0  0
 13 14  1  0  0  0
 13 26  1  0  0  0
 13 27  1  0  0  0
 14 15  1  0  0  0
 14 28  1  0  0  0
 14 29  1  0  0  0
 15 16  1  0  0  0
 16 19  2  0  0  0
 16 32  1  0  0  0
 17 18  2  0  0  0
 17 31  1  0  0  0
 17 42  1  0  0  0
 18 19  1  0  0  0
 18 41  1  0  0  0
 19 30  1  0  0  0
 31 32  2  0  0  0
 31 36  1  0  0  0
 32 33  1  0  0  0
 33 34  2  0  0  0
 33 37  1  0  0  0
 34 35  1  0  0  0
 34 38  1  0  0  0
 35 36  2  0  0  0
 35 39  1  0  0  0
 36 40  1  0  0  0
M  CHG  1   3  -1
M  END
> <s_m_entry_id>
175

> <s_m_entry_name>
MCL1_68.1

> <r_m_Molecular_weight>
379.82342

> <s_m_Source_Path>
C:\Users\yujiethinkpad\Desktop\05A\MCL1\original

> <s_m_Source_File>
MCL1_68.sdf

> <r_user_dG.exp>
-7.6896119149271

> <s_fepmapper_entryid>
9

> <i_fepmapper_bias>
0

> <i_fepmapper_affinity>
1

> <r_fepmapper_exp_dG>
-7.68961191493

> <i_fepmapper_unit>
1

> <i_m_Source_File_Index>
1

> <s_m_job_name>
align_ligands_1

> <s_i_glide_gridfile>
glide-grid_MCL1

> <i_i_glide_lignum>
8

> <i_i_glide_rotatable_bonds>
6

> <r_i_docking_score>
-8.12293876674693

> <r_i_glide_ligand_efficiency>
-0.30084958395359

> <r_i_glide_ligand_efficiency_sa>
-0.902548750869219

> <r_i_glide_ligand_efficiency_ln>
-1.89088622778692

> <r_i_glide_gscore>
-8.12293876674693

> <r_i_glide_lipo>
-5.15817171930876

> <r_i_glide_hbond>
-0.2

> <r_i_glide_metal>
0

> <r_i_glide_rewards>
-1.71945859090909

> <r_i_glide_evdw>
-25.6728534698486

> <r_i_glide_ecoul>
-1.89085710048676

> <r_i_glide_erotb>
0.53775539038866

> <r_i_glide_esite>
-0.0157926083522968

> <r_i_glide_emodel>
-30.2244873636357

> <r_i_glide_energy>
-27.5637105703354

> <r_i_glide_einternal>
7.44381427764893

> <i_i_glide_confnum>
49

> <i_i_glide_posenum>
133

> <r_i_glide_eff_state_penalty>
0

> <r_glide_shape_similarity>
0.851686060428619

> <i_phase_Input_Structure_Number>
23

> <i_phase_Structure_Number>
23

> <r_phase_Similarity_to_Reference>
0.842097825594262

> <i_phase_Reference_Structure>
1

> <s_phase_Alignment_Method>
snapped core

> <s_phase_Alignment_Reason>


> <s_phase_Core_SMARTS>
a1aaaaa1AAAAa(aa2)a(a23)aaaa3

> <s_f3d_frozen_atoms>
19 18 17 31 32 16 15 14 13 12 11 4 43 10 5 9 8 7 6 30 41 42 28 29 26 27 24 25 23 22 21 20

> <s_m_subgroup_title>
align_ligands_1->glide-dock_SP_redock_4245_lib1

> <s_m_subgroupid>
align_ligands_1->glide-dock_SP_redock_4245_lib11

> <b_m_subgroup_collapsed>
0

$$$$
