6e
                    3D
 Schrodinger Suite 2021-2.
 52 54  0  0  1  0            999 V2000
   18.2450  -13.1710   21.5890 N   0  0  0  0  0  0
   18.0280  -11.8220   21.0620 C   0  0  2  0  0  0
   17.4360  -13.6310   22.5680 C   0  0  0  0  0  0
   16.5060  -12.9450   23.0320 O   0  0  0  0  0  0
   16.6090  -11.7290   20.5280 C   0  0  0  0  0  0
   16.2150  -12.7280   19.9260 O   0  0  0  0  0  0
   18.9440  -11.8950   19.8030 C   0  0  0  0  0  0
   17.6570  -15.0120   23.1460 C   0  0  2  0  0  0
   15.9710  -10.5760   20.7540 N   0  0  0  0  0  0
   20.1040  -12.7670   20.3170 C   0  0  0  0  0  0
   16.3900  -15.7830   23.1600 N   0  3  0  0  0  0
   18.1720  -14.9170   24.5950 C   0  0  0  0  0  0
   14.6590  -10.4300   20.1130 C   0  0  0  0  0  0
   19.3760  -13.9390   21.0230 C   0  0  0  0  0  0
   19.5920  -14.3710   24.7440 C   0  0  0  0  0  0
   13.5670  -10.4920   21.1900 C   0  0  0  0  0  0
   19.8220  -13.2490   25.5510 C   0  0  0  0  0  0
   13.3860   -9.3970   22.0370 C   0  0  0  0  0  0
   21.1010  -12.7410   25.6970 C   0  0  0  0  0  0
   12.4020   -9.4430   23.0150 C   0  0  0  0  0  0
   22.1890  -13.3330   25.0460 C   0  0  0  0  0  0
   11.5890  -10.5670   23.1640 C   0  0  0  0  0  0
   21.9860  -14.4540   24.2350 C   0  0  0  0  0  0
   11.7790  -11.6630   22.3090 C   0  0  0  0  0  0
   20.6910  -14.9640   24.0890 C   0  0  0  0  0  0
   12.7700  -11.6130   21.3270 C   0  0  0  0  0  0
   18.3069  -11.0424   21.7734 H   0  0  0  0  0  0
   18.4843  -12.3765   18.9363 H   0  0  0  0  0  0
   19.2818  -10.9071   19.4872 H   0  0  0  0  0  0
   18.3464  -15.6096   22.5539 H   0  0  0  0  0  0
   16.3782   -9.8091   21.2690 H   0  0  0  0  0  0
   20.7587  -13.1073   19.5132 H   0  0  0  0  0  0
   20.7156  -12.2066   21.0275 H   0  0  0  0  0  0
   15.7068  -15.2986   23.7245 H   0  0  0  0  0  0
   16.0415  -15.8761   22.2166 H   0  0  0  0  0  0
   16.5577  -16.7001   23.5485 H   0  0  0  0  0  0
   17.4932  -14.3145   25.2033 H   0  0  0  0  0  0
   18.1815  -15.9056   25.0566 H   0  0  0  0  0  0
   14.6213   -9.4504   19.6341 H   0  0  0  0  0  0
   14.4523  -11.1495   19.3172 H   0  0  0  0  0  0
   20.0447  -14.4068   21.7345 H   0  0  0  0  0  0
   19.0215  -14.6771   20.3013 H   0  0  0  0  0  0
   19.0090  -12.7641   26.0738 H   0  0  0  0  0  0
   14.1727   -8.3014   21.9196 F   0  0  0  0  0  0
   21.2656  -11.8770   26.3261 H   0  0  0  0  0  0
   12.2663   -8.5932   23.6680 H   0  0  0  0  0  0
   23.1836  -12.9285   25.1751 H   0  0  0  0  0  0
   22.8245  -14.9230   23.7388 H   0  0  0  0  0  0
   10.8146  -13.0810   22.4856 Cl  0  0  0  0  0  0
   20.5615  -15.8488   23.4832 H   0  0  0  0  0  0
   12.9146  -12.4599   20.6723 H   0  0  0  0  0  0
   10.8256  -10.5946   23.9280 H   0  0  0  0  0  0
  1  2  1  0  0  0
  1 14  1  0  0  0
  1  3  1  0  0  0
  2  5  1  0  0  0
  2  7  1  0  0  0
  2 27  1  0  0  0
  3  8  1  0  0  0
  3  4  2  0  0  0
  5  6  2  0  0  0
  5  9  1  0  0  0
  7 10  1  0  0  0
  7 28  1  0  0  0
  7 29  1  0  0  0
  8 11  1  0  0  0
  8 12  1  0  0  0
  8 30  1  0  0  0
  9 13  1  0  0  0
  9 31  1  0  0  0
 10 14  1  0  0  0
 10 32  1  0  0  0
 10 33  1  0  0  0
 11 34  1  0  0  0
 11 35  1  0  0  0
 11 36  1  0  0  0
 12 15  1  0  0  0
 12 37  1  0  0  0
 12 38  1  0  0  0
 13 16  1  0  0  0
 13 39  1  0  0  0
 13 40  1  0  0  0
 14 41  1  0  0  0
 14 42  1  0  0  0
 15 17  1  0  0  0
 15 25  2  0  0  0
 16 18  1  0  0  0
 16 26  2  0  0  0
 17 19  2  0  0  0
 17 43  1  0  0  0
 18 20  2  0  0  0
 18 44  1  0  0  0
 19 21  1  0  0  0
 19 45  1  0  0  0
 20 22  1  0  0  0
 20 46  1  0  0  0
 21 23  2  0  0  0
 21 47  1  0  0  0
 22 24  2  0  0  0
 22 52  1  0  0  0
 23 25  1  0  0  0
 23 48  1  0  0  0
 24 26  1  0  0  0
 24 49  1  0  0  0
 25 50  1  0  0  0
 26 51  1  0  0  0
M  CHG  1  11   1
M  END
> <s_m_entry_id>
669

> <s_m_entry_name>
Thrombin_6e.1

> <s_m_Source_Path>
C:\Users\yujiethinkpad\Desktop\05A\Thrombin

> <s_m_Source_File>
Thrombin_6e.sdf

> <i_m_Source_File_Index>
1

> <i_f3d_flags>
0

> <s_m_job_name>
align_ligands_0

> <r_user_dG.exp>
-8.91

> <r_m_Molecular_weight>
404.89573

> <r_f3d_energy>
0

> <r_f3d_relative_energy>
0

> <r_phase_Shape_Sim>
0.968863548080242

> <s_m_subgroup_title>
align_ligands_0

> <s_m_subgroupid>
align_ligands_0

> <b_m_subgroup_collapsed>
0

$$$$
