jmc_23
                    3D
 Schrodinger Suite 2021-2.
 36 38  0  0  1  0            999 V2000
   -1.3108   21.2702  -28.3114 C   0  0  0  0  0  0
   -2.6890   21.1348  -28.1328 C   0  0  0  0  0  0
   -3.5524   22.1392  -28.5717 C   0  0  0  0  0  0
   -3.0391   23.2795  -29.1892 C   0  0  0  0  0  0
   -1.6629   23.4165  -29.3684 C   0  0  0  0  0  0
   -0.7988   22.4126  -28.9299 C   0  0  0  0  0  0
   -1.0288   24.8276  -30.1326 Cl  0  0  0  0  0  0
   -3.9677   24.3590  -29.6608 C   0  0  0  0  0  0
   -4.3352   25.3201  -28.9916 O   0  0  0  0  0  0
   -4.3627   24.1587  -30.9185 N   0  0  0  0  0  0
   -5.2654   25.0244  -31.6716 C   0  0  0  0  0  0
   -5.9712   24.5698  -32.8269 C   0  0  0  0  0  0
   -6.7976   25.3930  -33.5063 C   0  0  0  0  0  0
   -6.9740   26.7285  -33.1472 N   0  0  0  0  0  0
   -6.3432   27.2007  -32.0036 C   0  0  0  0  0  0
   -5.5027   26.3958  -31.3000 C   0  0  0  0  0  0
   -6.5334   28.5392  -31.6056 N   0  0  0  0  0  0
   -5.5056   29.3906  -31.5086 C   0  0  0  0  0  0
   -4.5318   29.1644  -32.1899 O   0  0  0  0  0  0
   -5.5228   30.5227  -30.5382 C   0  0  1  0  0  0
   -4.6390   31.7337  -30.8435 C   0  0  0  0  0  0
   -6.1316   31.8418  -30.9215 C   0  0  1  0  0  0
   -6.7015   31.9318  -32.1921 F   0  0  0  0  0  0
   -5.2553   21.9707  -28.3504 Cl  0  0  0  0  0  0
   -5.6344   30.2124  -29.5039 H   0  0  0  0  0  0
   -6.6210   32.4213  -30.1407 H   0  0  0  0  0  0
   -0.6415   20.4921  -27.9715 H   0  0  0  0  0  0
   -3.0893   20.2521  -27.6545 H   0  0  0  0  0  0
    0.2674   22.5211  -29.0700 H   0  0  0  0  0  0
   -4.0856   23.3837  -31.5039 H   0  0  0  0  0  0
   -5.8477   23.5527  -33.1691 H   0  0  0  0  0  0
   -7.3484   25.0227  -34.3584 H   0  0  0  0  0  0
   -5.0057   26.8149  -30.4376 H   0  0  0  0  0  0
   -7.4612   28.8747  -31.3861 H   0  0  0  0  0  0
   -4.0373   31.9753  -29.9666 H   0  0  0  0  0  0
   -3.9816   31.5026  -31.6826 H   0  0  0  0  0  0
  1  2  1  0  0  0
  1  6  2  0  0  0
  1 27  1  0  0  0
  2  3  2  0  0  0
  2 28  1  0  0  0
  3  4  1  0  0  0
  3 24  1  0  0  0
  4  5  2  0  0  0
  4  8  1  0  0  0
  5  6  1  0  0  0
  5  7  1  0  0  0
  6 29  1  0  0  0
  8  9  2  0  0  0
  8 10  1  0  0  0
 10 11  1  0  0  0
 10 30  1  0  0  0
 11 12  1  0  0  0
 11 16  2  0  0  0
 12 13  2  0  0  0
 12 31  1  0  0  0
 13 14  1  0  0  0
 13 32  1  0  0  0
 14 15  2  0  0  0
 15 16  1  0  0  0
 15 17  1  0  0  0
 16 33  1  0  0  0
 17 18  1  0  0  0
 17 34  1  0  0  0
 18 19  2  0  0  0
 18 20  1  0  0  0
 20 21  1  0  0  0
 20 22  1  0  0  0
 20 25  1  0  0  0
 21 22  1  0  0  0
 21 35  1  0  0  0
 21 36  1  0  0  0
 22 23  1  0  0  0
 22 26  1  0  0  0
M  END
> <s_m_entry_id>
770

> <s_m_entry_name>
Tyk2_jmc_23.1

> <r_user_dG.exp>
-11.7

> <r_m_Molecular_weight>
368.19734

> <s_m_Source_Path>
C:\Users\yujiethinkpad\Desktop\05A\Tyk2

> <s_m_Source_File>
Tyk2_jmc_23.sdf

> <i_m_Source_File_Index>
1

> <s_m_job_name>
align_ligands_0662

> <i_phase_Input_Structure_Number>
5

> <i_phase_Structure_Number>
5

> <r_phase_Similarity_to_Reference>
0.927235514498327

> <i_phase_Reference_Structure>
16

> <s_phase_Alignment_Method>
snapped core

> <s_phase_Alignment_Reason>


> <s_phase_Core_SMARTS>
A1AA1A(=A)Aa2aaaaa2

> <s_f3d_frozen_atoms>
21 22 20 18 19 17 15 14 13 12 11 16 35 36 23 26 25 19 34 32 31 33

> <s_fepmapper_entryid>
15

> <i_fepmapper_bias>
0

> <i_fepmapper_affinity>
1

> <r_fepmapper_exp_dG>
-11.7

> <i_fepmapper_unit>
1

> <s_m_subgroup_title>
align_ligands_0662

> <s_m_subgroupid>
align_ligands_0662

> <b_m_subgroup_collapsed>
0

$$$$
