18627-1
                    3D
 Schrodinger Suite 2021-2.
 38 39  0  0  1  0            999 V2000
   24.4200   10.9798   30.4176 C   0  0  0  0  0  0
   22.9879   11.3773   30.0913 C   0  0  0  0  0  0
   22.2071   11.4379   31.2698 O   0  0  0  0  0  0
   21.4827   10.3360   31.6702 C   0  0  0  0  0  0
   21.8234    9.1249   31.1901 N   0  0  0  0  0  0
   21.0517    8.0574   31.4561 C   0  0  0  0  0  0
   19.8955    8.1694   32.2436 C   0  0  0  0  0  0
   19.5651    9.4145   32.7729 C   0  0  0  0  0  0
   18.4112    9.5128   33.5198 N   0  0  0  0  0  0
   20.3614   10.5255   32.4811 C   0  0  0  0  0  0
   20.0114   11.8502   32.9246 C   0  0  0  0  0  0
   19.7300   12.9062   33.2696 N   0  0  0  0  0  0
   21.4620    6.8423   30.8890 N   0  0  0  0  0  0
   20.9893    5.5993   31.0169 C   0  0  0  0  0  0
   20.0116    5.2635   31.6698 O   0  0  0  0  0  0
   21.7357    4.5597   30.2098 C   0  0  0  0  0  0
   23.0838    4.2652   30.8203 C   0  0  0  0  0  0
   24.1920    5.0914   30.5536 C   0  0  0  0  0  0
   25.4469    4.7530   31.0870 C   0  0  0  0  0  0
   25.5981    3.6045   31.8850 C   0  0  0  0  0  0
   27.1576    3.1791   32.4698 Cl  0  0  0  0  0  0
   24.4907    2.7910   32.1698 C   0  0  0  0  0  0
   23.2420    3.1193   31.6215 C   0  0  0  0  0  0
   25.0412   10.9902   29.5220 H   0  0  0  0  0  0
   24.4704    9.9785   30.8455 H   0  0  0  0  0  0
   24.8562   11.6718   31.1378 H   0  0  0  0  0  0
   22.9894   12.3744   29.6504 H   0  0  0  0  0  0
   22.5534   10.7223   29.3339 H   0  0  0  0  0  0
   19.2542    7.3309   32.4611 H   0  0  0  0  0  0
   17.9918   10.4221   33.6689 H   0  0  0  0  0  0
   17.7474    8.7534   33.5022 H   0  0  0  0  0  0
   22.2728    6.9269   30.3016 H   0  0  0  0  0  0
   21.1476    3.6433   30.1447 H   0  0  0  0  0  0
   21.8636    4.9161   29.1883 H   0  0  0  0  0  0
   24.0963    5.9650   29.9258 H   0  0  0  0  0  0
   26.3055    5.3713   30.8684 H   0  0  0  0  0  0
   24.6054    1.8973   32.7653 H   0  0  0  0  0  0
   22.4114    2.4491   31.7797 H   0  0  0  0  0  0
  1  2  1  0  0  0
  1 24  1  0  0  0
  1 25  1  0  0  0
  1 26  1  0  0  0
  2  3  1  0  0  0
  2 27  1  0  0  0
  2 28  1  0  0  0
  3  4  1  0  0  0
  4 10  1  0  0  0
  4  5  2  0  0  0
  5  6  1  0  0  0
  6  7  2  0  0  0
  6 13  1  0  0  0
  7  8  1  0  0  0
  7 29  1  0  0  0
  8  9  1  0  0  0
  8 10  2  0  0  0
  9 30  1  0  0  0
  9 31  1  0  0  0
 10 11  1  0  0  0
 11 12  3  0  0  0
 13 14  1  0  0  0
 13 32  1  0  0  0
 14 15  2  0  0  0
 14 16  1  0  0  0
 16 17  1  0  0  0
 16 33  1  0  0  0
 16 34  1  0  0  0
 17 23  1  0  0  0
 17 18  2  0  0  0
 18 19  1  0  0  0
 18 35  1  0  0  0
 19 20  2  0  0  0
 19 36  1  0  0  0
 20 21  1  0  0  0
 20 22  1  0  0  0
 22 23  2  0  0  0
 22 37  1  0  0  0
 23 38  1  0  0  0
M  END
> <i_m_stars>
0

> <s_m_entry_id>
3020

> <s_m_entry_name>
Jnk1_18627-1.1

> <s_m_Source_Path>
C:\Users\yujiethinkpad\Desktop\05A\JNK1

> <s_m_Source_File>
Jnk1_18627-1.sdf

> <i_m_Source_File_Index>
1

> <s_i_glide_gridfile>
glide-grid_JNK1

> <r_i_docking_score>
-7.49343825178102

> <r_i_glide_ecoul>
-6.42342376708984

> <r_i_glide_einternal>
7.68459320068359

> <r_i_glide_emodel>
-42.0991570331339

> <r_i_glide_energy>
-38.2561321258545

> <r_i_glide_erotb>
0.687793016403273

> <r_i_glide_esite>
0

> <r_i_glide_evdw>
-31.8327083587646

> <r_i_glide_gscore>
-7.49343825178102

> <r_i_glide_hbond>
-0.32

> <r_i_glide_ligand_efficiency>
-0.325801663120914

> <r_i_glide_ligand_efficiency_ln>
-1.81198131602209

> <r_i_glide_ligand_efficiency_sa>
-0.926536590761908

> <r_i_glide_lipo>
-3.2683894745043

> <r_i_glide_metal>
0

> <r_i_glide_rewards>
-2.03769281067829

> <i_i_glide_confnum>
10

> <i_i_glide_lignum>
18

> <i_i_glide_posenum>
60

> <i_i_glide_rotatable_bonds>
6

> <r_i_glide_eff_state_penalty>
0

> <s_m_job_name>
glide-dock_SP_other_0000

> <r_user_dG.exp>
-8.483096

> <r_m_Molecular_weight>
330.77655

> <r_glide_shape_similarity>
0.865046620368958

> <s_m_subgroup_title>
glide-dock_SP_other_0000_lib1

> <s_m_subgroupid>
glide-dock_SP_other_0000_lib1

> <b_m_subgroup_collapsed>
0

$$$$
