18629-1
                    3D
 Schrodinger Suite 2021-2.
 41 42  0  0  1  0            999 V2000
   23.5386   11.1051   29.1795 C   0  0  0  0  0  0
   23.6473   11.1979   30.6959 C   0  0  0  0  0  0
   22.3674   11.4061   31.2698 O   0  0  0  0  0  0
   21.5997   10.3254   31.6545 C   0  0  0  0  0  0
   21.9376    9.1041   31.1934 N   0  0  0  0  0  0
   21.1352    8.0500   31.4202 C   0  0  0  0  0  0
   19.9417    8.1843   32.1384 C   0  0  0  0  0  0
   19.6104    9.4365   32.6365 C   0  0  0  0  0  0
   18.4025    9.5620   33.2730 N   0  0  0  0  0  0
   20.4414   10.5340   32.4100 C   0  0  0  0  0  0
   20.0883   11.8486   32.8851 C   0  0  0  0  0  0
   19.8015   12.8916   33.2683 N   0  0  0  0  0  0
   21.5333    6.8256   30.8702 N   0  0  0  0  0  0
   21.0299    5.5950   30.9993 C   0  0  0  0  0  0
   20.0590    5.2740   31.6698 O   0  0  0  0  0  0
   21.7573    4.5435   30.1933 C   0  0  0  0  0  0
   23.1027    4.2556   30.8063 C   0  0  0  0  0  0
   23.2526    3.1246   31.6244 C   0  0  0  0  0  0
   24.4942    2.8205   32.2015 C   0  0  0  0  0  0
   24.6310    1.6440   33.1334 C   0  0  0  0  0  0
   25.6086    3.6239   31.9146 C   0  0  0  0  0  0
   25.4625    4.7531   31.0878 C   0  0  0  0  0  0
   24.2104    5.0810   30.5403 C   0  0  0  0  0  0
   24.5227   11.0014   28.7235 H   0  0  0  0  0  0
   23.0734   12.0006   28.7666 H   0  0  0  0  0  0
   22.9398   10.2478   28.8713 H   0  0  0  0  0  0
   24.1615   10.3327   31.1175 H   0  0  0  0  0  0
   24.2643   12.0599   30.9525 H   0  0  0  0  0  0
   19.2620    7.3653   32.3083 H   0  0  0  0  0  0
   18.0480   10.4575   33.5823 H   0  0  0  0  0  0
   17.7800    8.7766   33.3855 H   0  0  0  0  0  0
   22.3568    6.8859   30.2968 H   0  0  0  0  0  0
   21.1646    3.6291   30.1418 H   0  0  0  0  0  0
   21.8840    4.8914   29.1685 H   0  0  0  0  0  0
   22.4114    2.4696   31.7915 H   0  0  0  0  0  0
   25.1896    1.9256   34.0269 H   0  0  0  0  0  0
   23.6557    1.2715   33.4487 H   0  0  0  0  0  0
   25.1602    0.8310   32.6343 H   0  0  0  0  0  0
   26.5736    3.3911   32.3411 H   0  0  0  0  0  0
   26.3198    5.3735   30.8702 H   0  0  0  0  0  0
   24.1188    5.9445   29.8984 H   0  0  0  0  0  0
  1  2  1  0  0  0
  1 24  1  0  0  0
  1 25  1  0  0  0
  1 26  1  0  0  0
  2  3  1  0  0  0
  2 27  1  0  0  0
  2 28  1  0  0  0
  3  4  1  0  0  0
  4 10  1  0  0  0
  4  5  2  0  0  0
  5  6  1  0  0  0
  6  7  2  0  0  0
  6 13  1  0  0  0
  7  8  1  0  0  0
  7 29  1  0  0  0
  8  9  1  0  0  0
  8 10  2  0  0  0
  9 30  1  0  0  0
  9 31  1  0  0  0
 10 11  1  0  0  0
 11 12  3  0  0  0
 13 14  1  0  0  0
 13 32  1  0  0  0
 14 15  2  0  0  0
 14 16  1  0  0  0
 16 17  1  0  0  0
 16 33  1  0  0  0
 16 34  1  0  0  0
 17 23  1  0  0  0
 17 18  2  0  0  0
 18 19  1  0  0  0
 18 35  1  0  0  0
 19 20  1  0  0  0
 19 21  2  0  0  0
 20 36  1  0  0  0
 20 37  1  0  0  0
 20 38  1  0  0  0
 21 22  1  0  0  0
 21 39  1  0  0  0
 22 23  2  0  0  0
 22 40  1  0  0  0
 23 41  1  0  0  0
M  END
> <i_m_stars>
0

> <s_m_entry_id>
3029

> <s_m_entry_name>
Jnk1_18629-1.1

> <s_m_Source_Path>
C:\Users\yujiethinkpad\Desktop\05A\JNK1

> <s_m_Source_File>
Jnk1_18629-1.sdf

> <i_m_Source_File_Index>
1

> <s_i_glide_gridfile>
glide-grid_JNK1

> <r_i_docking_score>
-7.12155329051418

> <r_i_glide_ecoul>
-5.91198301315308

> <r_i_glide_einternal>
6.94546985626221

> <r_i_glide_emodel>
-41.6631163949579

> <r_i_glide_energy>
-38.5531420707703

> <r_i_glide_erotb>
0.961897661652081

> <r_i_glide_esite>
0

> <r_i_glide_evdw>
-32.6411590576172

> <r_i_glide_gscore>
-7.12155329051418

> <r_i_glide_hbond>
-0.32

> <r_i_glide_ligand_efficiency>
-0.309632751761486

> <r_i_glide_ligand_efficiency_ln>
-1.72205616032137

> <r_i_glide_ligand_efficiency_sa>
-0.880554357694742

> <r_i_glide_lipo>
-3.07641040110904

> <r_i_glide_metal>
0

> <r_i_glide_rewards>
-2.1681851462034

> <i_i_glide_confnum>
21

> <i_i_glide_lignum>
20

> <i_i_glide_posenum>
90

> <i_i_glide_rotatable_bonds>
6

> <r_i_glide_eff_state_penalty>
0

> <s_m_job_name>
glide-dock_SP_other_0000

> <r_user_dG.exp>
-8.67377

> <r_m_Molecular_weight>
310.35861

> <r_glide_shape_similarity>
0.864865243434906

> <s_m_subgroup_title>
glide-dock_SP_other_0000_lib1

> <s_m_subgroupid>
glide-dock_SP_other_0000_lib1

> <b_m_subgroup_collapsed>
0

$$$$
