18633-1
                    3D
 Schrodinger Suite 2021-2.
 42 43  0  0  1  0            999 V2000
   24.4225   10.9789   30.4305 C   0  0  0  0  0  0
   22.9923   11.3778   30.0956 C   0  0  0  0  0  0
   22.2053   11.4376   31.2701 O   0  0  0  0  0  0
   21.4845   10.3334   31.6705 C   0  0  0  0  0  0
   21.8279    9.1244   31.1871 N   0  0  0  0  0  0
   21.0588    8.0545   31.4496 C   0  0  0  0  0  0
   19.9024    8.1616   32.2370 C   0  0  0  0  0  0
   19.5682    9.4034   32.7692 C   0  0  0  0  0  0
   18.4115    9.4896   33.5142 N   0  0  0  0  0  0
   20.3626   10.5178   32.4817 C   0  0  0  0  0  0
   20.0107   11.8414   32.9249 C   0  0  0  0  0  0
   19.7285   12.8976   33.2685 N   0  0  0  0  0  0
   21.4689    6.8413   30.8792 N   0  0  0  0  0  0
   20.9968    5.5990   31.0091 C   0  0  0  0  0  0
   20.0260    5.2609   31.6700 O   0  0  0  0  0  0
   21.7411    4.5592   30.2005 C   0  0  0  0  0  0
   23.0851    4.2627   30.8166 C   0  0  0  0  0  0
   23.2359    3.1197   31.6196 C   0  0  0  0  0  0
   24.4761    2.7950   32.1794 C   0  0  0  0  0  0
   25.5947    3.5970   31.9128 C   0  0  0  0  0  0
   25.4484    4.7453   31.0960 C   0  0  0  0  0  0
   24.1967    5.0837   30.5545 C   0  0  0  0  0  0
   26.7752    3.1826   32.4740 O   0  0  0  0  0  0
   27.9637    3.8253   32.0640 C   0  0  0  0  0  0
   25.0507   10.9913   29.5397 H   0  0  0  0  0  0
   24.4694    9.9760   30.8565 H   0  0  0  0  0  0
   24.8534   11.6695   31.1556 H   0  0  0  0  0  0
   22.9967   12.3754   29.6556 H   0  0  0  0  0  0
   22.5615   10.7238   29.3362 H   0  0  0  0  0  0
   19.2605    7.3225   32.4510 H   0  0  0  0  0  0
   17.9862   10.3942   33.6700 H   0  0  0  0  0  0
   17.7632    8.7162   33.5093 H   0  0  0  0  0  0
   22.2791    6.9270   30.2899 H   0  0  0  0  0  0
   21.1511    3.6437   30.1362 H   0  0  0  0  0  0
   21.8711    4.9151   29.1787 H   0  0  0  0  0  0
   22.4107    2.4455   31.7752 H   0  0  0  0  0  0
   24.5781    1.9063   32.7848 H   0  0  0  0  0  0
   26.2887    5.3832   30.8675 H   0  0  0  0  0  0
   24.1059    5.9554   29.9232 H   0  0  0  0  0  0
   28.8160    3.3263   32.5235 H   0  0  0  0  0  0
   28.0950    3.7686   30.9828 H   0  0  0  0  0  0
   27.9922    4.8689   32.3745 H   0  0  0  0  0  0
  1  2  1  0  0  0
  1 25  1  0  0  0
  1 26  1  0  0  0
  1 27  1  0  0  0
  2  3  1  0  0  0
  2 28  1  0  0  0
  2 29  1  0  0  0
  3  4  1  0  0  0
  4 10  1  0  0  0
  4  5  2  0  0  0
  5  6  1  0  0  0
  6  7  2  0  0  0
  6 13  1  0  0  0
  7  8  1  0  0  0
  7 30  1  0  0  0
  8  9  1  0  0  0
  8 10  2  0  0  0
  9 31  1  0  0  0
  9 32  1  0  0  0
 10 11  1  0  0  0
 11 12  3  0  0  0
 13 14  1  0  0  0
 13 33  1  0  0  0
 14 15  2  0  0  0
 14 16  1  0  0  0
 16 17  1  0  0  0
 16 34  1  0  0  0
 16 35  1  0  0  0
 17 22  1  0  0  0
 17 18  2  0  0  0
 18 19  1  0  0  0
 18 36  1  0  0  0
 19 20  2  0  0  0
 19 37  1  0  0  0
 20 21  1  0  0  0
 20 23  1  0  0  0
 21 22  2  0  0  0
 21 38  1  0  0  0
 22 39  1  0  0  0
 23 24  1  0  0  0
 24 40  1  0  0  0
 24 41  1  0  0  0
 24 42  1  0  0  0
M  END
> <i_m_stars>
0

> <s_m_entry_id>
3024

> <s_m_entry_name>
Jnk1_18633-1.1

> <s_m_Source_Path>
C:\Users\yujiethinkpad\Desktop\05A\JNK1

> <s_m_Source_File>
Jnk1_18633-1.sdf

> <i_m_Source_File_Index>
1

> <s_i_glide_gridfile>
glide-grid_JNK1

> <r_i_docking_score>
-7.40106792667006

> <r_i_glide_ecoul>
-6.41273546218872

> <r_i_glide_einternal>
8.54865837097168

> <r_i_glide_emodel>
-43.1168668638946

> <r_i_glide_energy>
-39.1573414802551

> <r_i_glide_erotb>
0.88041336613276

> <r_i_glide_esite>
0

> <r_i_glide_evdw>
-32.7446060180664

> <r_i_glide_gscore>
-7.40106792667006

> <r_i_glide_hbond>
-0.337931018078431

> <r_i_glide_ligand_efficiency>
-0.308377830277919

> <r_i_glide_ligand_efficiency_ln>
-1.77141516772983

> <r_i_glide_ligand_efficiency_sa>
-0.889515585479011

> <r_i_glide_lipo>
-3.27860272599006

> <r_i_glide_metal>
0

> <r_i_glide_rewards>
-2.0658069285027

> <i_i_glide_confnum>
6

> <i_i_glide_lignum>
4

> <i_i_glide_posenum>
252

> <i_i_glide_rotatable_bonds>
7

> <r_i_glide_eff_state_penalty>
0

> <s_m_job_name>
glide-dock_SP_other_0000

> <r_user_dG.exp>
-9.174299

> <r_m_Molecular_weight>
326.35801

> <r_glide_shape_similarity>
0.872900545597076

> <s_m_subgroup_title>
glide-dock_SP_other_0000_lib1

> <s_m_subgroupid>
glide-dock_SP_other_0000_lib1

> <b_m_subgroup_collapsed>
0

$$$$
