18638-1
                    3D
 Schrodinger Suite 2021-2.
 52 53  0  0  1  0            999 V2000
   24.2137   12.4004   30.1208 C   0  0  0  0  0  0
   23.4602   11.0950   30.4078 C   0  0  0  0  0  0
   22.3497   11.3680   31.2697 O   0  0  0  0  0  0
   21.5440   10.3097   31.6703 C   0  0  0  0  0  0
   21.8542    9.0751   31.2007 N   0  0  0  0  0  0
   21.0528    8.0183   31.4543 C   0  0  0  0  0  0
   19.8891    8.1527   32.2433 C   0  0  0  0  0  0
   19.5758    9.4180   32.7701 C   0  0  0  0  0  0
   18.4111    9.5320   33.5208 N   0  0  0  0  0  0
   20.3974   10.5336   32.4699 C   0  0  0  0  0  0
   20.0482   11.8755   32.9163 C   0  0  0  0  0  0
   19.7654   12.9359   33.2684 N   0  0  0  0  0  0
   21.4434    6.7946   30.8697 N   0  0  0  0  0  0
   20.9729    5.5423   30.9950 C   0  0  0  0  0  0
   20.0107    5.2000   31.6696 O   0  0  0  0  0  0
   21.7272    4.4921   30.1850 C   0  0  0  0  0  0
   23.0973    4.2360   30.8023 C   0  0  0  0  0  0
   24.1903    5.1085   30.5367 C   0  0  0  0  0  0
   23.9615    6.2167   29.7321 O   0  0  0  0  0  0
   24.8531    7.3234   29.8382 C   0  0  0  0  0  0
   25.4610    4.7793   31.0836 C   0  0  0  0  0  0
   25.6291    3.6264   31.8936 C   0  0  0  0  0  0
   27.2997    3.1975   32.4692 S   0  0  0  0  0  0
   28.2122    4.2845   32.0698 O   0  0  0  0  0  0
   27.2306    2.7986   33.8869 O   0  0  0  0  0  0
   27.7501    1.7055   31.4725 C   0  0  0  0  0  0
   24.5338    2.7755   32.1862 C   0  0  0  0  0  0
   23.2666    3.0952   31.6265 C   0  0  0  0  0  0
   24.7992    1.6572   32.9555 O   0  0  0  0  0  0
   23.7530    0.7749   33.3200 C   0  0  0  0  0  0
   25.0610   12.2260   29.4585 H   0  0  0  0  0  0
   24.5954   12.8457   31.0402 H   0  0  0  0  0  0
   23.5602   13.1307   29.6411 H   0  0  0  0  0  0
   23.1115   10.6632   29.4685 H   0  0  0  0  0  0
   24.1363   10.3798   30.8782 H   0  0  0  0  0  0
   19.2365    7.3196   32.4473 H   0  0  0  0  0  0
   17.9910   10.4425   33.6980 H   0  0  0  0  0  0
   17.7607    8.7539   33.5701 H   0  0  0  0  0  0
   22.2578    6.8757   30.2716 H   0  0  0  0  0  0
   21.1566    3.5632   30.1481 H   0  0  0  0  0  0
   21.8338    4.8346   29.1559 H   0  0  0  0  0  0
   24.4544    8.1643   29.2717 H   0  0  0  0  0  0
   24.9685    7.6512   30.8699 H   0  0  0  0  0  0
   25.8331    7.0856   29.4247 H   0  0  0  0  0  0
   26.3195    5.3958   30.8674 H   0  0  0  0  0  0
   28.7530    1.3784   31.7455 H   0  0  0  0  0  0
   27.0391    0.9050   31.6769 H   0  0  0  0  0  0
   27.7240    1.9568   30.4124 H   0  0  0  0  0  0
   22.4187    2.4448   31.7677 H   0  0  0  0  0  0
   24.1881   -0.1626   33.6638 H   0  0  0  0  0  0
   23.2109    1.1949   34.1573 H   0  0  0  0  0  0
   23.0767    0.5307   32.5014 H   0  0  0  0  0  0
  1  2  1  0  0  0
  1 31  1  0  0  0
  1 32  1  0  0  0
  1 33  1  0  0  0
  2  3  1  0  0  0
  2 34  1  0  0  0
  2 35  1  0  0  0
  3  4  1  0  0  0
  4 10  1  0  0  0
  4  5  2  0  0  0
  5  6  1  0  0  0
  6  7  2  0  0  0
  6 13  1  0  0  0
  7  8  1  0  0  0
  7 36  1  0  0  0
  8  9  1  0  0  0
  8 10  2  0  0  0
  9 37  1  0  0  0
  9 38  1  0  0  0
 10 11  1  0  0  0
 11 12  3  0  0  0
 13 14  1  0  0  0
 13 39  1  0  0  0
 14 15  2  0  0  0
 14 16  1  0  0  0
 16 17  1  0  0  0
 16 40  1  0  0  0
 16 41  1  0  0  0
 17 28  1  0  0  0
 17 18  2  0  0  0
 18 19  1  0  0  0
 18 21  1  0  0  0
 19 20  1  0  0  0
 20 42  1  0  0  0
 20 43  1  0  0  0
 20 44  1  0  0  0
 21 22  2  0  0  0
 21 45  1  0  0  0
 22 23  1  0  0  0
 22 27  1  0  0  0
 23 24  2  0  0  0
 23 25  2  0  0  0
 23 26  1  0  0  0
 26 46  1  0  0  0
 26 47  1  0  0  0
 26 48  1  0  0  0
 27 28  2  0  0  0
 27 29  1  0  0  0
 28 49  1  0  0  0
 29 30  1  0  0  0
 30 50  1  0  0  0
 30 51  1  0  0  0
 30 52  1  0  0  0
M  END
> <i_m_stars>
0

> <s_m_entry_id>
3014

> <s_m_entry_name>
Jnk1_18638-1.1

> <s_m_Source_Path>
C:\Users\yujiethinkpad\Desktop\05A\JNK1

> <s_m_Source_File>
Jnk1_18638-1.sdf

> <i_m_Source_File_Index>
1

> <s_i_glide_gridfile>
glide-grid_JNK1

> <r_i_docking_score>
-7.63166465753467

> <r_i_glide_ecoul>
-7.62129211425781

> <r_i_glide_einternal>
7.85201072692871

> <r_i_glide_emodel>
-50.6171615886717

> <r_i_glide_energy>
-44.2216300964355

> <r_i_glide_erotb>
0.52754325173273

> <r_i_glide_esite>
0

> <r_i_glide_evdw>
-36.6003379821777

> <r_i_glide_gscore>
-7.63166465753467

> <r_i_glide_hbond>
-0.339598542306577

> <r_i_glide_ligand_efficiency>
-0.254388821917822

> <r_i_glide_ligand_efficiency_ln>
-1.7339973638384

> <r_i_glide_ligand_efficiency_sa>
-0.790445215718211

> <r_i_glide_lipo>
-3.45752192605554

> <r_i_glide_metal>
0

> <r_i_glide_rewards>
-1.38887672465772

> <i_i_glide_confnum>
9

> <i_i_glide_lignum>
9

> <i_i_glide_posenum>
128

> <i_i_glide_rotatable_bonds>
9

> <r_i_glide_eff_state_penalty>
0

> <s_m_job_name>
glide-dock_SP_other_0000

> <r_user_dG.exp>
-10.093111

> <r_m_Molecular_weight>
434.47439

> <r_glide_shape_similarity>
0.8834348320961

> <s_m_subgroup_title>
glide-dock_SP_other_0000_lib1

> <s_m_subgroupid>
glide-dock_SP_other_0000_lib1

> <b_m_subgroup_collapsed>
0

$$$$
