18660-1
                    3D
 Schrodinger Suite 2021-2.
 52 53  0  0  1  0            999 V2000
   21.3136   13.7023   33.5232 C   0  0  0  0  0  0
   19.8324   13.3509   32.4731 S   0  0  0  0  0  0
   18.7981   14.3741   32.7060 O   0  0  0  0  0  0
   20.3612   13.1994   31.1169 O   0  0  0  0  0  0
   19.2101   11.7398   33.1681 C   0  0  0  0  0  0
   19.9502   10.5032   32.6634 C   0  0  0  0  0  0
   21.3144   10.8037   32.5121 O   0  0  0  0  0  0
   21.9579   10.0857   31.5423 C   0  0  0  0  0  0
   21.6002    8.7748   31.4311 N   0  0  0  0  0  0
   22.1837    8.0445   30.4607 C   0  0  0  0  0  0
   23.1269    8.6028   29.5636 C   0  0  0  0  0  0
   23.5273    9.9452   29.6910 C   0  0  0  0  0  0
   24.4978   10.4618   28.8136 N   0  0  0  0  0  0
   22.9186   10.7216   30.7035 C   0  0  0  0  0  0
   23.2678   12.1326   30.8165 C   0  0  0  0  0  0
   23.5603   13.2496   30.8939 N   0  0  0  0  0  0
   22.0107    6.6710   30.2459 N   0  0  0  0  0  0
   21.3221    5.7113   30.8688 C   0  0  0  0  0  0
   20.3965    5.8625   31.6696 O   0  0  0  0  0  0
   21.7807    4.3350   30.3709 C   0  0  0  0  0  0
   23.1923    4.0037   30.8893 C   0  0  0  0  0  0
   24.3836    4.7198   30.5455 C   0  0  0  0  0  0
   24.3458    5.6717   29.5414 O   0  0  0  0  0  0
   25.5545    6.3565   29.2093 C   0  0  0  0  0  0
   25.5958    4.3974   31.2188 C   0  0  0  0  0  0
   25.6505    3.3569   32.1616 C   0  0  0  0  0  0
   24.4879    2.5998   32.4428 C   0  0  0  0  0  0
   23.2923    2.9140   31.7742 C   0  0  0  0  0  0
   24.4258    1.5699   33.3566 O   0  0  0  0  0  0
   25.4897    1.4527   34.2910 C   0  0  0  0  0  0
   21.5434   14.7647   33.5071 H   0  0  0  0  0  0
   22.1608   13.1994   33.0872 H   0  0  0  0  0  0
   21.2115   13.3318   34.5379 H   0  0  0  0  0  0
   19.2308   11.8088   34.2542 H   0  0  0  0  0  0
   18.1682   11.6562   32.8697 H   0  0  0  0  0  0
   19.7905    9.6423   33.3146 H   0  0  0  0  0  0
   19.6020   10.2568   31.6717 H   0  0  0  0  0  0
   23.5440    8.0050   28.7725 H   0  0  0  0  0  0
   24.7451   11.4468   28.8286 H   0  0  0  0  0  0
   24.9204    9.9024   28.0827 H   0  0  0  0  0  0
   22.6973    6.2870   29.6040 H   0  0  0  0  0  0
   21.0597    3.5836   30.6951 H   0  0  0  0  0  0
   21.7780    4.3142   29.2801 H   0  0  0  0  0  0
   25.4002    6.9958   28.3414 H   0  0  0  0  0  0
   25.8927    6.9860   30.0336 H   0  0  0  0  0  0
   26.3473    5.6612   28.9331 H   0  0  0  0  0  0
   26.5176    4.9223   31.0223 H   0  0  0  0  0  0
   26.5911    3.1468   32.6464 H   0  0  0  0  0  0
   22.4243    2.3078   31.9848 H   0  0  0  0  0  0
   25.2337    0.7009   35.0381 H   0  0  0  0  0  0
   26.4125    1.1345   33.8020 H   0  0  0  0  0  0
   25.6676    2.3929   34.8164 H   0  0  0  0  0  0
  1  2  1  0  0  0
  1 31  1  0  0  0
  1 32  1  0  0  0
  1 33  1  0  0  0
  2  3  2  0  0  0
  2  4  2  0  0  0
  2  5  1  0  0  0
  5  6  1  0  0  0
  5 34  1  0  0  0
  5 35  1  0  0  0
  6  7  1  0  0  0
  6 36  1  0  0  0
  6 37  1  0  0  0
  7  8  1  0  0  0
  8 14  1  0  0  0
  8  9  2  0  0  0
  9 10  1  0  0  0
 10 11  2  0  0  0
 10 17  1  0  0  0
 11 12  1  0  0  0
 11 38  1  0  0  0
 12 13  1  0  0  0
 12 14  2  0  0  0
 13 39  1  0  0  0
 13 40  1  0  0  0
 14 15  1  0  0  0
 15 16  3  0  0  0
 17 18  1  0  0  0
 17 41  1  0  0  0
 18 19  2  0  0  0
 18 20  1  0  0  0
 20 21  1  0  0  0
 20 42  1  0  0  0
 20 43  1  0  0  0
 21 28  1  0  0  0
 21 22  2  0  0  0
 22 23  1  0  0  0
 22 25  1  0  0  0
 23 24  1  0  0  0
 24 44  1  0  0  0
 24 45  1  0  0  0
 24 46  1  0  0  0
 25 26  2  0  0  0
 25 47  1  0  0  0
 26 27  1  0  0  0
 26 48  1  0  0  0
 27 28  2  0  0  0
 27 29  1  0  0  0
 28 49  1  0  0  0
 29 30  1  0  0  0
 30 50  1  0  0  0
 30 51  1  0  0  0
 30 52  1  0  0  0
M  END
> <i_m_stars>
0

> <s_m_entry_id>
3030

> <s_m_entry_name>
Jnk1_18660-1.1

> <s_m_Source_Path>
C:\Users\yujiethinkpad\Desktop\05A\JNK1

> <s_m_Source_File>
Jnk1_18660-1.sdf

> <i_m_Source_File_Index>
1

> <s_i_glide_gridfile>
glide-grid_JNK1

> <r_i_docking_score>
-6.24728670330685

> <r_i_glide_ecoul>
-6.16538238525391

> <r_i_glide_einternal>
7.55774164199829

> <r_i_glide_emodel>
-23.6303648905414

> <r_i_glide_energy>
-39.7843933105469

> <r_i_glide_erotb>
0.738560552425822

> <r_i_glide_esite>
-0.082113273825103

> <r_i_glide_evdw>
-33.619010925293

> <r_i_glide_gscore>
-6.24728670330685

> <r_i_glide_hbond>
0

> <r_i_glide_ligand_efficiency>
-0.208242890110228

> <r_i_glide_ligand_efficiency_ln>
-1.4194516086319

> <r_i_glide_ligand_efficiency_sa>
-0.647059076550687

> <r_i_glide_lipo>
-3.19888950851018

> <r_i_glide_metal>
0

> <r_i_glide_rewards>
-1.09908656934466

> <i_i_glide_confnum>
17

> <i_i_glide_lignum>
14

> <i_i_glide_posenum>
314

> <i_i_glide_rotatable_bonds>
10

> <r_i_glide_eff_state_penalty>
0

> <s_m_job_name>
glide-dock_SP_other_0000

> <r_user_dG.exp>
-8.702592

> <r_m_Molecular_weight>
434.47439

> <r_glide_shape_similarity>
0.718776762485504

> <s_m_subgroup_title>
glide-dock_SP_other_0000_lib1

> <s_m_subgroupid>
glide-dock_SP_other_0000_lib1

> <b_m_subgroup_collapsed>
0

$$$$
