7a
                    3D
 Schrodinger Suite 2021-2.
 58 60  0  0  1  0            999 V2000
   18.0591  -13.0467   21.6695 N   0  0  0  0  0  0
   17.8492  -11.7197   21.0521 C   0  0  2  0  0  0
   17.2309  -13.6063   22.5909 C   0  0  0  0  0  0
   16.2595  -13.0028   23.0448 O   0  0  0  0  0  0
   16.4393  -11.5354   20.4509 C   0  0  0  0  0  0
   15.9026  -12.4655   19.8420 O   0  0  0  0  0  0
   18.9070  -11.6088   19.9423 C   0  0  0  0  0  0
   17.4654  -15.0472   23.0927 C   0  0  2  0  0  0
   15.8547  -10.3441   20.6448 N   0  0  0  0  0  0
   19.9930  -12.5971   20.3188 C   0  0  0  0  0  0
   16.1775  -15.7633   23.0447 N   0  3  0  0  0  0
   18.0183  -15.0960   24.5390 C   0  0  0  0  0  0
   14.4977   -9.9948   20.2409 C   0  0  0  0  0  0
   19.2943  -13.6557   21.1693 C   0  0  0  0  0  0
   19.4107  -14.5215   24.7439 C   0  0  0  0  0  0
   13.4421  -10.4547   21.2318 C   0  0  0  0  0  0
   20.5464  -15.2075   24.2637 C   0  0  0  0  0  0
   12.9634   -9.5705   22.2215 C   0  0  0  0  0  0
   21.8304  -14.6469   24.4220 C   0  0  0  0  0  0
   11.9644   -9.9893   23.1212 C   0  0  0  0  0  0
   21.9862  -13.4081   25.0733 C   0  0  0  0  0  0
   11.4544  -11.2990   23.0448 C   0  0  0  0  0  0
   20.8598  -12.7388   25.5896 C   0  0  0  0  0  0
   11.9372  -12.1898   22.0693 C   0  0  0  0  0  0
   19.5786  -13.3026   25.4321 C   0  0  0  0  0  0
   12.9260  -11.7670   21.1617 C   0  0  0  0  0  0
   18.0326  -10.9662   21.8204 H   0  0  0  0  0  0
   18.4933  -11.8975   18.9731 H   0  0  0  0  0  0
   19.2905  -10.5933   19.8349 H   0  0  0  0  0  0
   18.1472  -15.5839   22.4342 H   0  0  0  0  0  0
   16.3619   -9.6453   21.1643 H   0  0  0  0  0  0
   20.5047  -13.0165   19.4510 H   0  0  0  0  0  0
   20.7454  -12.0867   20.9231 H   0  0  0  0  0  0
   16.2673  -16.7007   23.4054 H   0  0  0  0  0  0
   15.4955  -15.2355   23.5819 H   0  0  0  0  0  0
   15.8568  -15.7926   22.0790 H   0  0  0  0  0  0
   17.3327  -14.5823   25.2166 H   0  0  0  0  0  0
   18.0549  -16.1286   24.8895 H   0  0  0  0  0  0
   14.4357   -8.9127   20.1208 H   0  0  0  0  0  0
   14.2779  -10.4170   19.2581 H   0  0  0  0  0  0
   19.9552  -13.9837   21.9696 H   0  0  0  0  0  0
   19.0495  -14.5171   20.5459 H   0  0  0  0  0  0
   20.4526  -16.1603   23.7628 H   0  0  0  0  0  0
   22.7010  -15.1671   24.0471 H   0  0  0  0  0  0
   11.5893   -9.3057   23.8696 H   0  0  0  0  0  0
   22.9717  -12.9802   25.1952 H   0  0  0  0  0  0
   20.9813  -11.7970   26.1068 H   0  0  0  0  0  0
   18.7261  -12.7700   25.8310 H   0  0  0  0  0  0
   13.2866  -12.4459   20.4020 H   0  0  0  0  0  0
   10.6845  -11.6164   23.7336 H   0  0  0  0  0  0
   13.4967   -8.1713   22.3107 C   0  0  0  0  0  0
   13.0075   -7.6478   23.1321 H   0  0  0  0  0  0
   14.5715   -8.2028   22.4888 H   0  0  0  0  0  0
   13.2984   -7.6467   21.3761 H   0  0  0  0  0  0
   11.3769  -13.5783   21.9799 C   0  0  0  0  0  0
   11.8696  -14.1176   21.1709 H   0  0  0  0  0  0
   11.5477  -14.1003   22.9214 H   0  0  0  0  0  0
   10.3062  -13.5260   21.7826 H   0  0  0  0  0  0
  1  2  1  0  0  0
  1 14  1  0  0  0
  1  3  1  0  0  0
  2  5  1  0  0  0
  2  7  1  0  0  0
  2 27  1  0  0  0
  3  8  1  0  0  0
  3  4  2  0  0  0
  5  6  2  0  0  0
  5  9  1  0  0  0
  7 10  1  0  0  0
  7 28  1  0  0  0
  7 29  1  0  0  0
  8 11  1  0  0  0
  8 12  1  0  0  0
  8 30  1  0  0  0
  9 13  1  0  0  0
  9 31  1  0  0  0
 10 14  1  0  0  0
 10 32  1  0  0  0
 10 33  1  0  0  0
 11 34  1  0  0  0
 11 35  1  0  0  0
 11 36  1  0  0  0
 12 15  1  0  0  0
 12 37  1  0  0  0
 12 38  1  0  0  0
 13 16  1  0  0  0
 13 39  1  0  0  0
 13 40  1  0  0  0
 14 41  1  0  0  0
 14 42  1  0  0  0
 15 17  1  0  0  0
 15 25  2  0  0  0
 16 18  1  0  0  0
 16 26  2  0  0  0
 17 19  2  0  0  0
 17 43  1  0  0  0
 18 20  2  0  0  0
 18 51  1  0  0  0
 19 21  1  0  0  0
 19 44  1  0  0  0
 20 22  1  0  0  0
 20 45  1  0  0  0
 21 23  2  0  0  0
 21 46  1  0  0  0
 22 24  2  0  0  0
 22 50  1  0  0  0
 23 25  1  0  0  0
 23 47  1  0  0  0
 24 26  1  0  0  0
 24 55  1  0  0  0
 25 48  1  0  0  0
 26 49  1  0  0  0
 51 52  1  0  0  0
 51 53  1  0  0  0
 51 54  1  0  0  0
 55 56  1  0  0  0
 55 57  1  0  0  0
 55 58  1  0  0  0
M  CHG  1  11   1
M  END
> <s_m_entry_id>
626

> <s_m_entry_name>
Thrombin_7a.1

> <s_m_Source_Path>
C:\Users\yujiethinkpad\Desktop\05A\Thrombin

> <s_m_Source_File>
Thrombin_7a.sdf

> <i_m_Source_File_Index>
1

> <i_f3d_flags>
0

> <s_m_job_name>
align_ligands_3

> <r_user_dG.exp>
-8.22

> <r_m_Molecular_weight>
380.51445

> <r_f3d_energy>
10.74686

> <r_f3d_relative_energy>
9.99999999997669e-05

> <r_phase_Shape_Sim>
0.917103766426608

> <s_m_subgroup_title>
align_ligands_3

> <s_m_subgroupid>
align_ligands_3

> <b_m_subgroup_collapsed>
0

$$$$
