/home/yujie/leadopt/data/result/selection/PSK13/lig_38.sdf:1
                    3D
 Schrodinger Suite 2020-3.
 58 62  0  0  1  0            999 V2000
    6.8412   25.5290    3.7223 C   0  0  0  0  0  0
    5.8407   25.4099    4.7756 N   0  0  0  0  0  0
    5.7756   26.2157    5.8445 C   0  0  0  0  0  0
    6.5268   27.1662    6.0436 O   0  0  0  0  0  0
    4.7299   25.8758    6.7627 C   0  0  0  0  0  0
    4.5356   24.5828    7.3134 C   0  0  0  0  0  0
    3.4838   24.5919    8.1780 O   0  0  0  0  0  0
    2.9807   25.8530    8.2036 C   0  0  0  0  0  0
    1.8884   26.2542    8.9785 C   0  0  0  0  0  0
    1.5222   27.5958    8.9029 C   0  0  0  0  0  0
    2.2116   28.4929    8.0894 C   0  0  0  0  0  0
    3.3260   28.0964    7.3248 C   0  0  0  0  0  0
    3.7239   26.7273    7.3748 C   0  0  0  0  0  0
    4.0055   29.1547    6.4603 C   0  0  0  0  0  0
    4.7908   30.2407    7.2321 N   0  3  2  0  0  0
    5.6378   31.0956    6.2812 C   0  0  0  0  0  0
    6.6200   31.8032    7.1990 C   0  0  0  0  0  0
    6.9578   30.7767    8.2830 C   0  0  0  0  0  0
    7.3425   31.3873    9.6413 C   0  0  0  0  0  0
    8.7629   30.9697    9.4601 O   0  0  0  0  0  0
    8.3886   30.1946    8.2455 C   0  0  0  0  0  0
    5.8010   29.7469    8.2882 C   0  0  0  0  0  0
    1.7721   29.7925    8.0429 O   0  0  0  0  0  0
    5.2624   23.2519    7.1885 C   0  0  0  0  0  0
    6.6573   23.3048    7.0263 C   0  0  0  0  0  0
    7.4206   22.1493    6.8593 C   0  0  0  0  0  0
    6.8108   20.9014    6.9019 C   0  0  0  0  0  0
    5.4357   20.8145    7.0841 C   0  0  0  0  0  0
    4.6543   21.9698    7.2226 C   0  0  0  0  0  0
    3.1596   21.7453    7.3968 C   0  0  0  0  0  0
    7.5613   19.7587    6.8217 O   0  0  0  0  0  0
    6.8857   26.5495    3.3464 H   0  0  0  0  0  0
    7.8324   25.2752    4.1062 H   0  0  0  0  0  0
    6.6090   24.8652    2.8843 H   0  0  0  0  0  0
    5.1789   24.6521    4.7048 H   0  0  0  0  0  0
    1.3595   25.5530    9.6084 H   0  0  0  0  0  0
    0.6818   27.9516    9.4835 H   0  0  0  0  0  0
    4.6674   28.7237    5.7124 H   0  0  0  0  0  0
    3.2610   29.7478    5.9227 H   0  0  0  0  0  0
    6.1343   30.3699    5.6424 H   0  0  0  0  0  0
    4.9880   31.7278    5.6744 H   0  0  0  0  0  0
    7.4939   32.1694    6.6578 H   0  0  0  0  0  0
    6.1326   32.6663    7.6432 H   0  0  0  0  0  0
    7.2931   32.4750    9.7171 H   0  0  0  0  0  0
    6.9349   30.8872   10.5189 H   0  0  0  0  0  0
    8.4936   29.1337    8.4835 H   0  0  0  0  0  0
    9.0347   30.4982    7.4174 H   0  0  0  0  0  0
    5.2538   29.6641    9.2293 H   0  0  0  0  0  0
    6.1300   28.7610    7.9593 H   0  0  0  0  0  0
    1.2711   30.0661    8.8283 H   0  0  0  0  0  0
    7.1775   24.2517    7.0250 H   0  0  0  0  0  0
    8.4915   22.2187    6.7345 H   0  0  0  0  0  0
    4.9708   19.8364    7.1110 H   0  0  0  0  0  0
    2.7075   22.4215    8.1122 H   0  0  0  0  0  0
    2.6534   21.8416    6.4418 H   0  0  0  0  0  0
    2.9527   20.7461    7.7816 H   0  0  0  0  0  0
    7.0773   18.9896    7.1350 H   0  0  0  0  0  0
    4.1114   30.8310    7.6966 H   0  0  0  0  0  0
  1  2  1  0  0  0
  1 32  1  0  0  0
  1 33  1  0  0  0
  1 34  1  0  0  0
  2  3  1  0  0  0
  2 35  1  0  0  0
  3  4  2  0  0  0
  3  5  1  0  0  0
  5 13  1  0  0  0
  5  6  2  0  0  0
  6  7  1  0  0  0
  6 24  1  0  0  0
  7  8  1  0  0  0
  8 13  1  0  0  0
  8  9  2  0  0  0
  9 10  1  0  0  0
  9 36  1  0  0  0
 10 11  2  0  0  0
 10 37  1  0  0  0
 11 12  1  0  0  0
 11 23  1  0  0  0
 12 13  2  0  0  0
 12 14  1  0  0  0
 14 15  1  0  0  0
 14 38  1  0  0  0
 14 39  1  0  0  0
 15 22  1  0  0  0
 15 16  1  0  0  0
 15 58  1  0  0  0
 16 17  1  0  0  0
 16 40  1  0  0  0
 16 41  1  0  0  0
 17 18  1  0  0  0
 17 42  1  0  0  0
 17 43  1  0  0  0
 18 21  1  0  0  0
 18 19  1  0  0  0
 18 22  1  0  0  0
 19 20  1  0  0  0
 19 44  1  0  0  0
 19 45  1  0  0  0
 20 21  1  0  0  0
 21 46  1  0  0  0
 21 47  1  0  0  0
 22 48  1  0  0  0
 22 49  1  0  0  0
 23 50  1  0  0  0
 24 29  1  0  0  0
 24 25  2  0  0  0
 25 26  1  0  0  0
 25 51  1  0  0  0
 26 27  2  0  0  0
 26 52  1  0  0  0
 27 28  1  0  0  0
 27 31  1  0  0  0
 28 29  2  0  0  0
 28 53  1  0  0  0
 29 30  1  0  0  0
 30 54  1  0  0  0
 30 55  1  0  0  0
 30 56  1  0  0  0
 31 57  1  0  0  0
M  CHG  1  15   1
M  END
> <s_m_source_file>
/home/yujie/leadopt/data/result/selection/PSK13/lig_38.sdf

> <i_m_source_file_index>
1

> <i_lp_mmshare_version>
51139

> <i_f3d_flags>
0

> <s_epik_input>
W0NIM11jMVtjSF1jKFtPSF0pW2NIXVtjSF1jMS1jKG8yKWMoQyg9TylbTkhdW0NIM10pYyhjMjMpYyhjKFtPSF0pW2NIXVtjSF0zKVtDSDJdTihbQ0gyXTQpW0NIMl1bQ0gyXUM0NVtDSDJdT1tDSDJdNQ==

> <s_epik_cmdline>
J2VwaWtfcHl0aG9uJywgJy1waHQnLCAnMi4wJywgJy1waCcsICc3LjAnLCAnLXRuJywgJzgnLCAnLW1hJywgJzIwMCcsICctaW1hZScsICc8aW5maWxlLm1hZT4nLCAnLW9tYWUnLCAnPG91dGZpbGUubWFlPic=

> <r_lp_tautomer_probability>
1

> <r_epik_Ionization_Penalty>
  0.4565

> <r_epik_Ionization_Penalty_Charging>
  0.0574

> <r_epik_Ionization_Penalty_Neutral>
  0.3991

> <r_epik_State_Penalty>
  0.4234

> <r_epik_Charging_Adjusted_Penalty>
0.480812

> <i_epik_Tot_Q>
1

> <i_epik_Tot_abs_Q>
1

> <s_lp_Force_Field>
OPLS3e

> <r_lp_Energy>
28.1938

> <b_lp_Chiralities_Consistent>
1

> <s_lp_Variant>
/home/yujie/leadopt/data/result/selection/PSK13/lig_38.sdf:1-1

> <s_i_glide_gridfile>
glide-grid_PSK13

> <i_i_glide_lignum>
1

> <i_i_glide_rotatable_bonds>
7

> <r_i_docking_score>
-9.04665627111399

> <r_i_glide_ligand_efficiency>
-0.291827621648838

> <r_i_glide_ligand_efficiency_sa>
-0.916741643431697

> <r_i_glide_ligand_efficiency_ln>
-2.04029823585484

> <r_i_glide_gscore>
-9.47005627111399

> <r_i_glide_lipo>
-4.45013547855264

> <r_i_glide_hbond>
-0.16

> <r_i_glide_metal>
-0

> <r_i_glide_rewards>
-1.18190268486994

> <r_i_glide_evdw>
-50.3116149902344

> <r_i_glide_ecoul>
-10.6967096328735

> <r_i_glide_erotb>
0.442069086751347

> <r_i_glide_esite>
0

> <r_i_glide_emodel>
-98.779148048824

> <r_i_glide_energy>
-61.0083246231079

> <r_i_glide_einternal>
4.919358253479

> <i_i_glide_confnum>
136

> <i_i_glide_posenum>
387

> <r_i_glide_eff_state_penalty>
0.4234

$$$$
