/home/yujie/leadopt/data/result/selection/PSK13/lig_44.sdf:1
                    3D
 Schrodinger Suite 2020-3.
 56 60  0  0  1  0            999 V2000
    6.9932   19.4545    7.0624 O   0  0  0  0  0  0
    6.3468   20.6489    7.2342 C   0  0  0  0  0  0
    4.9684   20.6840    7.4479 C   0  0  0  0  0  0
    4.3316   21.9101    7.6404 C   0  0  0  0  0  0
    5.1019   23.0798    7.6350 C   0  0  0  0  0  0
    6.4551   23.0523    7.4885 N   0  0  0  0  0  0
    7.0515   21.8558    7.2416 C   0  0  0  0  0  0
    4.4460   24.4257    7.6836 C   0  0  0  0  0  0
    3.2754   24.4365    8.3781 O   0  0  0  0  0  0
    2.8128   25.7081    8.3600 C   0  0  0  0  0  0
    1.6297   26.1292    8.9697 C   0  0  0  0  0  0
    1.2902   27.4691    8.8211 C   0  0  0  0  0  0
    2.1100   28.3534    8.1270 C   0  0  0  0  0  0
    3.3268   27.9389    7.5496 C   0  0  0  0  0  0
    3.6753   26.5639    7.6410 C   0  0  0  0  0  0
    4.7443   25.7043    7.1668 C   0  0  0  0  0  0
    5.9089   26.0475    6.3910 C   0  0  0  0  0  0
    6.6225   26.9900    6.7261 O   0  0  0  0  0  0
    6.1357   25.3512    5.2588 N   0  0  0  0  0  0
    5.6046   24.0859    4.6811 C   0  0  0  0  0  0
    6.4522   24.3943    3.4569 C   0  0  0  0  0  0
    5.7340   24.6418    2.3748 F   0  0  0  0  0  0
    7.0871   25.6072    4.1511 C   0  0  0  0  0  0
    4.2167   28.9823    6.8859 C   0  0  0  0  0  0
    5.3309   29.5038    7.8265 N   0  3  0  0  0  0
    4.7342   30.2592    9.0450 C   0  0  0  0  0  0
    5.8707   30.7558    9.9548 C   0  0  0  0  0  0
    6.9155   31.5867    9.1866 C   0  0  0  0  0  0
    7.4453   30.8314    7.9542 C   0  0  0  0  0  0
    6.3070   30.3911    7.0225 C   0  0  0  0  0  0
    1.7036   29.6597    8.0419 O   0  0  0  0  0  0
    7.9483   19.5340    7.0539 H   0  0  0  0  0  0
    4.3943   19.7709    7.4542 H   0  0  0  0  0  0
    3.2582   21.9473    7.7566 H   0  0  0  0  0  0
    8.1221   21.8796    7.1017 H   0  0  0  0  0  0
    1.0000   25.4432    9.5142 H   0  0  0  0  0  0
    0.3649   27.8333    9.2417 H   0  0  0  0  0  0
    5.8833   23.1703    5.1875 H   0  0  0  0  0  0
    4.5341   24.1232    4.5041 H   0  0  0  0  0  0
    7.1658   23.6098    3.2026 H   0  0  0  0  0  0
    6.8973   26.5532    3.6424 H   0  0  0  0  0  0
    8.1294   25.4989    4.4496 H   0  0  0  0  0  0
    4.7063   28.5750    6.0009 H   0  0  0  0  0  0
    3.6694   29.8692    6.5595 H   0  0  0  0  0  0
    4.1292   31.0758    8.6521 H   0  0  0  0  0  0
    4.0797   29.5761    9.5871 H   0  0  0  0  0  0
    5.4438   31.3567   10.7599 H   0  0  0  0  0  0
    6.3479   29.9022   10.4389 H   0  0  0  0  0  0
    7.7418   31.8491    9.8491 H   0  0  0  0  0  0
    6.4730   32.5346    8.8717 H   0  0  0  0  0  0
    8.0117   29.9545    8.2735 H   0  0  0  0  0  0
    8.1402   31.4593    7.3985 H   0  0  0  0  0  0
    6.6798   29.7881    6.1936 H   0  0  0  0  0  0
    5.7384   31.2370    6.6330 H   0  0  0  0  0  0
    1.1744   29.9473    8.8034 H   0  0  0  0  0  0
    5.8615   28.7095    8.1697 H   0  0  0  0  0  0
  1  2  1  0  0  0
  1 32  1  0  0  0
  2  7  1  0  0  0
  2  3  2  0  0  0
  3  4  1  0  0  0
  3 33  1  0  0  0
  4  5  2  0  0  0
  4 34  1  0  0  0
  5  6  1  0  0  0
  5  8  1  0  0  0
  6  7  2  0  0  0
  7 35  1  0  0  0
  8 16  2  0  0  0
  8  9  1  0  0  0
  9 10  1  0  0  0
 10 15  2  0  0  0
 10 11  1  0  0  0
 11 12  2  0  0  0
 11 36  1  0  0  0
 12 13  1  0  0  0
 12 37  1  0  0  0
 13 14  2  0  0  0
 13 31  1  0  0  0
 14 15  1  0  0  0
 14 24  1  0  0  0
 15 16  1  0  0  0
 16 17  1  0  0  0
 17 18  2  0  0  0
 17 19  1  0  0  0
 19 23  1  0  0  0
 19 20  1  0  0  0
 20 21  1  0  0  0
 20 38  1  0  0  0
 20 39  1  0  0  0
 21 22  1  0  0  0
 21 23  1  0  0  0
 21 40  1  0  0  0
 23 41  1  0  0  0
 23 42  1  0  0  0
 24 25  1  0  0  0
 24 43  1  0  0  0
 24 44  1  0  0  0
 25 30  1  0  0  0
 25 26  1  0  0  0
 25 56  1  0  0  0
 26 27  1  0  0  0
 26 45  1  0  0  0
 26 46  1  0  0  0
 27 28  1  0  0  0
 27 47  1  0  0  0
 27 48  1  0  0  0
 28 29  1  0  0  0
 28 49  1  0  0  0
 28 50  1  0  0  0
 29 30  1  0  0  0
 29 51  1  0  0  0
 29 52  1  0  0  0
 30 53  1  0  0  0
 30 54  1  0  0  0
 31 55  1  0  0  0
M  CHG  1  25   1
M  END
> <s_m_source_file>
/home/yujie/leadopt/data/result/selection/PSK13/lig_44.sdf

> <i_m_source_file_index>
1

> <i_lp_mmshare_version>
51139

> <i_f3d_flags>
0

> <s_epik_input>
W09IXWMxW2NIXVtjSF1jKG5bY0hdMSktYyhvMiljKEMoPU8pTjNbQ0gyXVtDSF0oRilbQ0gyXTMpYyhjMjQpYyhjKFtPSF0pW2NIXVtjSF00KVtDSDJdTjVbQ0gyXVtDSDJdW0NIMl1bQ0gyXVtDSDJdNQ==

> <s_epik_cmdline>
J2VwaWtfcHl0aG9uJywgJy1waHQnLCAnMi4wJywgJy1waCcsICc3LjAnLCAnLXRuJywgJzgnLCAnLW1hJywgJzIwMCcsICctaW1hZScsICc8aW5maWxlLm1hZT4nLCAnLW9tYWUnLCAnPG91dGZpbGUubWFlPic=

> <r_lp_tautomer_probability>
0.43658

> <r_epik_Ionization_Penalty>
  0.6039

> <r_epik_Ionization_Penalty_Charging>
  0.0193

> <r_epik_Ionization_Penalty_Neutral>
  0.5847

> <r_epik_State_Penalty>
  1.1536

> <r_epik_Charging_Adjusted_Penalty>
1.17291

> <i_epik_Tot_Q>
1

> <i_epik_Tot_abs_Q>
1

> <s_lp_Force_Field>
OPLS3e

> <r_lp_Energy>
27.9799

> <b_lp_Chiralities_Consistent>
1

> <s_lp_Variant>
/home/yujie/leadopt/data/result/selection/PSK13/lig_44.sdf:1-4

> <s_i_glide_gridfile>
glide-grid_PSK13

> <i_i_glide_lignum>
4

> <i_i_glide_rotatable_bonds>
7

> <r_i_docking_score>
-7.90683142598717

> <r_i_glide_ligand_efficiency>
-0.255059078257651

> <r_i_glide_ligand_efficiency_sa>
-0.801237652738219

> <r_i_glide_ligand_efficiency_ln>
-1.78323280184235

> <r_i_glide_gscore>
-9.06047142598717

> <r_i_glide_lipo>
-4.45175521633905

> <r_i_glide_hbond>
-0.16

> <r_i_glide_metal>
-0

> <r_i_glide_rewards>
-1.3383041174521

> <r_i_glide_evdw>
-47.4055366516113

> <r_i_glide_ecoul>
-8.57170867919922

> <r_i_glide_erotb>
0.545621042264442

> <r_i_glide_esite>
0

> <r_i_glide_emodel>
-88.2324531941994

> <r_i_glide_energy>
-55.9772453308105

> <r_i_glide_einternal>
17.1054058074951

> <i_i_glide_confnum>
127

> <i_i_glide_posenum>
188

> <r_i_glide_eff_state_penalty>
1.15364

$$$$
