/home/yujie/leadopt/data/result/selection/PSK13/lig_43.sdf:1
                    3D
 Schrodinger Suite 2020-3.
 53 57  0  0  1  0            999 V2000
    7.0580   19.7065    7.1125 O   0  0  0  0  0  0
    6.3850   20.8912    7.2402 C   0  0  0  0  0  0
    4.9991   20.9037    7.3966 C   0  0  0  0  0  0
    4.3366   22.1248    7.5357 C   0  0  0  0  0  0
    5.0877   23.3083    7.5185 C   0  0  0  0  0  0
    6.4433   23.3024    7.4039 N   0  0  0  0  0  0
    7.0687   22.1094    7.2415 C   0  0  0  0  0  0
    4.4261   24.6497    7.5711 C   0  0  0  0  0  0
    3.2531   24.6502    8.2646 O   0  0  0  0  0  0
    2.7979   25.9266    8.2709 C   0  0  0  0  0  0
    1.6245   26.3483    8.8977 C   0  0  0  0  0  0
    1.3074   27.6984    8.7887 C   0  0  0  0  0  0
    2.1278   28.5872    8.0978 C   0  0  0  0  0  0
    3.3255   28.1691    7.4853 C   0  0  0  0  0  0
    3.6649   26.7912    7.5629 C   0  0  0  0  0  0
    4.7327   25.9388    7.0836 C   0  0  0  0  0  0
    5.9031   26.3040    6.3276 C   0  0  0  0  0  0
    6.6402   27.2035    6.7262 O   0  0  0  0  0  0
    6.0930   25.6974    5.1389 N   0  0  0  0  0  0
    7.0366   26.0218    4.0473 C   0  0  0  0  0  0
    6.3041   24.9354    3.2416 C   0  0  0  0  0  0
    5.6228   24.4316    4.5251 C   0  0  0  0  0  0
    4.2011   29.2081    6.7884 C   0  0  0  0  0  0
    5.3690   29.6956    7.6722 N   0  3  0  0  0  0
    6.2833   30.7299    6.9831 C   0  0  0  0  0  0
    6.8202   31.6210    8.1133 C   0  0  0  0  0  0
    6.1892   31.1237    9.4139 C   0  0  0  0  0  0
    4.9345   30.3769    8.9841 C   0  0  0  0  0  0
    1.7345   29.8985    8.0416 O   0  0  0  0  0  0
    8.0122   19.8066    7.1101 H   0  0  0  0  0  0
    4.4453   19.9756    7.4034 H   0  0  0  0  0  0
    3.2608   22.1470    7.6321 H   0  0  0  0  0  0
    8.1429   22.1485    7.1383 H   0  0  0  0  0  0
    0.9921   25.6560    9.4328 H   0  0  0  0  0  0
    0.3997   28.0683    9.2418 H   0  0  0  0  0  0
    6.8376   27.0417    3.7204 H   0  0  0  0  0  0
    8.0587   25.8427    4.3830 H   0  0  0  0  0  0
    7.0065   24.1990    2.8495 H   0  0  0  0  0  0
    5.5988   25.3615    2.5261 H   0  0  0  0  0  0
    6.0589   23.5698    5.0217 H   0  0  0  0  0  0
    4.5352   24.4314    4.5408 H   0  0  0  0  0  0
    4.6548   28.8174    5.8765 H   0  0  0  0  0  0
    3.6531   30.1096    6.5087 H   0  0  0  0  0  0
    7.0446   30.1670    6.4418 H   0  0  0  0  0  0
    5.6695   31.3078    6.2887 H   0  0  0  0  0  0
    7.9091   31.5927    8.1631 H   0  0  0  0  0  0
    6.5377   32.6586    7.9267 H   0  0  0  0  0  0
    5.9528   31.9433   10.0938 H   0  0  0  0  0  0
    6.8609   30.4433    9.9395 H   0  0  0  0  0  0
    4.1032   31.0421    8.7424 H   0  0  0  0  0  0
    4.5780   29.6201    9.6840 H   0  0  0  0  0  0
    1.2178   30.1794    8.8152 H   0  0  0  0  0  0
    5.9259   28.8798    7.9127 H   0  0  0  0  0  0
  1  2  1  0  0  0
  1 30  1  0  0  0
  2  7  1  0  0  0
  2  3  2  0  0  0
  3  4  1  0  0  0
  3 31  1  0  0  0
  4  5  2  0  0  0
  4 32  1  0  0  0
  5  6  1  0  0  0
  5  8  1  0  0  0
  6  7  2  0  0  0
  7 33  1  0  0  0
  8 16  2  0  0  0
  8  9  1  0  0  0
  9 10  1  0  0  0
 10 15  2  0  0  0
 10 11  1  0  0  0
 11 12  2  0  0  0
 11 34  1  0  0  0
 12 13  1  0  0  0
 12 35  1  0  0  0
 13 14  2  0  0  0
 13 29  1  0  0  0
 14 15  1  0  0  0
 14 23  1  0  0  0
 15 16  1  0  0  0
 16 17  1  0  0  0
 17 18  2  0  0  0
 17 19  1  0  0  0
 19 22  1  0  0  0
 19 20  1  0  0  0
 20 21  1  0  0  0
 20 36  1  0  0  0
 20 37  1  0  0  0
 21 22  1  0  0  0
 21 38  1  0  0  0
 21 39  1  0  0  0
 22 40  1  0  0  0
 22 41  1  0  0  0
 23 24  1  0  0  0
 23 42  1  0  0  0
 23 43  1  0  0  0
 24 28  1  0  0  0
 24 25  1  0  0  0
 24 53  1  0  0  0
 25 26  1  0  0  0
 25 44  1  0  0  0
 25 45  1  0  0  0
 26 27  1  0  0  0
 26 46  1  0  0  0
 26 47  1  0  0  0
 27 28  1  0  0  0
 27 48  1  0  0  0
 27 49  1  0  0  0
 28 50  1  0  0  0
 28 51  1  0  0  0
 29 52  1  0  0  0
M  CHG  1  24   1
M  END
> <s_m_source_file>
/home/yujie/leadopt/data/result/selection/PSK13/lig_43.sdf

> <i_m_source_file_index>
1

> <i_lp_mmshare_version>
51139

> <i_f3d_flags>
0

> <s_epik_input>
W09IXWMxW2NIXVtjSF1jKG5bY0hdMSktYyhvMiljKEMoPU8pTjNbQ0gyXVtDSDJdW0NIMl0zKWMoYzI0KWMoYyhbT0hdKVtjSF1bY0hdNClbQ0gyXU41W0NIMl1bQ0gyXVtDSDJdW0NIMl01

> <s_epik_cmdline>
J2VwaWtfcHl0aG9uJywgJy1waHQnLCAnMi4wJywgJy1waCcsICc3LjAnLCAnLXRuJywgJzgnLCAnLW1hJywgJzIwMCcsICctaW1hZScsICc8aW5maWxlLm1hZT4nLCAnLW9tYWUnLCAnPG91dGZpbGUubWFlPic=

> <r_lp_tautomer_probability>
0.43658

> <r_epik_Ionization_Penalty>
  0.5544

> <r_epik_Ionization_Penalty_Charging>
  0.0197

> <r_epik_Ionization_Penalty_Neutral>
  0.5347

> <r_epik_State_Penalty>
  1.0926

> <r_epik_Charging_Adjusted_Penalty>
1.1123

> <i_epik_Tot_Q>
1

> <i_epik_Tot_abs_Q>
1

> <s_lp_Force_Field>
OPLS3e

> <r_lp_Energy>
23.1768

> <b_lp_Chiralities_Consistent>
1

> <s_lp_Variant>
/home/yujie/leadopt/data/result/selection/PSK13/lig_43.sdf:1-4

> <s_i_glide_gridfile>
glide-grid_PSK13

> <i_i_glide_lignum>
4

> <i_i_glide_rotatable_bonds>
7

> <r_i_docking_score>
-8.26705420305185

> <r_i_glide_ligand_efficiency>
-0.285070834587995

> <r_i_glide_ligand_efficiency_sa>
-0.875827920633946

> <r_i_glide_ligand_efficiency_ln>
-1.89294577809203

> <r_i_glide_gscore>
-9.35970420305185

> <r_i_glide_lipo>
-4.5223124342966

> <r_i_glide_hbond>
-0.16

> <r_i_glide_metal>
-0

> <r_i_glide_rewards>
-1.5835366078182

> <r_i_glide_evdw>
-46.9215774536133

> <r_i_glide_ecoul>
-9.17256164550781

> <r_i_glide_erotb>
0.628107958569785

> <r_i_glide_esite>
0

> <r_i_glide_emodel>
-94.6781783495336

> <r_i_glide_energy>
-56.0941390991211

> <r_i_glide_einternal>
4.7811336517334

> <i_i_glide_confnum>
116

> <i_i_glide_posenum>
170

> <r_i_glide_eff_state_penalty>
1.09265

$$$$
