/home/yujie/leadopt/data/result/selection/PSK13/lig_30.sdf:1
                    3D
 Schrodinger Suite 2020-3.
 57 61  0  0  1  0            999 V2000
    6.7611   25.6411    3.9668 C   0  0  0  0  0  0
    5.7301   25.5629    4.9914 N   0  0  0  0  0  0
    5.7350   26.2704    6.1298 C   0  0  0  0  0  0
    6.6095   27.0739    6.4401 O   0  0  0  0  0  0
    4.6462   25.9505    7.0119 C   0  0  0  0  0  0
    4.3850   24.6573    7.5080 C   0  0  0  0  0  0
    3.2983   24.6447    8.3296 O   0  0  0  0  0  0
    2.8444   25.9209    8.3961 C   0  0  0  0  0  0
    1.7351   26.3285    9.1409 C   0  0  0  0  0  0
    1.4135   27.6802    9.0840 C   0  0  0  0  0  0
    2.1533   28.5766    8.3148 C   0  0  0  0  0  0
    3.2800   28.1745    7.5743 C   0  0  0  0  0  0
    3.6383   26.8011    7.6138 C   0  0  0  0  0  0
    4.0241   29.2075    6.7260 C   0  0  0  0  0  0
    5.2858   29.6473    7.3197 N   0  0  1  0  0  0
    6.1292   30.3020    6.3353 C   0  0  0  0  0  0
    7.2246   31.0329    7.1048 C   0  0  0  0  0  0
    6.6488   31.1416    8.5229 C   0  0  0  0  0  0
    6.9125   32.4638    9.2613 C   0  0  0  0  0  0
    8.0020   31.8152   10.0406 O   0  0  0  0  0  0
    7.4943   30.4797    9.6155 C   0  0  0  0  0  0
    5.2006   30.6366    8.3868 C   0  0  0  0  0  0
    1.7373   29.8788    8.2841 O   0  0  0  0  0  0
    5.0374   23.3240    7.3189 C   0  0  0  0  0  0
    4.2546   22.1683    7.3146 C   0  0  0  0  0  0
    4.8400   20.9289    7.0800 C   0  0  0  0  0  0
    6.2128   20.8376    6.8372 C   0  0  0  0  0  0
    7.0052   21.9894    6.8779 C   0  0  0  0  0  0
    6.4197   23.2235    7.1313 C   0  0  0  0  0  0
    6.8015   19.4693    6.5222 C   0  0  0  0  0  0
    8.1323   19.4685    6.0418 O   0  0  0  0  0  0
    6.4693   25.0544    3.0955 H   0  0  0  0  0  0
    6.9210   26.6674    3.6426 H   0  0  0  0  0  0
    7.7066   25.2486    4.3447 H   0  0  0  0  0  0
    4.9512   24.9456    4.8185 H   0  0  0  0  0  0
    1.1588   25.6263    9.7253 H   0  0  0  0  0  0
    0.5630   28.0455    9.6398 H   0  0  0  0  0  0
    4.2307   28.7379    5.7643 H   0  0  0  0  0  0
    3.3972   30.0702    6.5013 H   0  0  0  0  0  0
    6.5339   29.5358    5.6745 H   0  0  0  0  0  0
    5.5618   30.9729    5.6833 H   0  0  0  0  0  0
    8.1588   30.4725    7.0728 H   0  0  0  0  0  0
    7.4016   32.0137    6.6604 H   0  0  0  0  0  0
    7.3301   33.2827    8.6726 H   0  0  0  0  0  0
    6.1359   32.7823    9.9626 H   0  0  0  0  0  0
    6.9282   30.0487   10.4414 H   0  0  0  0  0  0
    8.3145   29.8373    9.2936 H   0  0  0  0  0  0
    4.5122   31.4374    8.1128 H   0  0  0  0  0  0
    4.7837   30.2032    9.2988 H   0  0  0  0  0  0
    1.2506   30.1535    9.0878 H   0  0  0  0  0  0
    3.1865   22.2283    7.4669 H   0  0  0  0  0  0
    4.2212   20.0414    7.0587 H   0  0  0  0  0  0
    8.0721   21.9364    6.7162 H   0  0  0  0  0  0
    7.0467   24.1019    7.1576 H   0  0  0  0  0  0
    6.1765   19.0283    5.7481 H   0  0  0  0  0  0
    6.7271   18.8338    7.4058 H   0  0  0  0  0  0
    8.1736   20.0318    5.2649 H   0  0  0  0  0  0
  1  2  1  0  0  0
  1 32  1  0  0  0
  1 33  1  0  0  0
  1 34  1  0  0  0
  2  3  1  0  0  0
  2 35  1  0  0  0
  3  4  2  0  0  0
  3  5  1  0  0  0
  5 13  1  0  0  0
  5  6  2  0  0  0
  6  7  1  0  0  0
  6 24  1  0  0  0
  7  8  1  0  0  0
  8 13  1  0  0  0
  8  9  2  0  0  0
  9 10  1  0  0  0
  9 36  1  0  0  0
 10 11  2  0  0  0
 10 37  1  0  0  0
 11 12  1  0  0  0
 11 23  1  0  0  0
 12 13  2  0  0  0
 12 14  1  0  0  0
 14 15  1  0  0  0
 14 38  1  0  0  0
 14 39  1  0  0  0
 15 22  1  0  0  0
 15 16  1  0  0  0
 16 17  1  0  0  0
 16 40  1  0  0  0
 16 41  1  0  0  0
 17 18  1  0  0  0
 17 42  1  0  0  0
 17 43  1  0  0  0
 18 21  1  0  0  0
 18 19  1  0  0  0
 18 22  1  0  0  0
 19 20  1  0  0  0
 19 44  1  0  0  0
 19 45  1  0  0  0
 20 21  1  0  0  0
 21 46  1  0  0  0
 21 47  1  0  0  0
 22 48  1  0  0  0
 22 49  1  0  0  0
 23 50  1  0  0  0
 24 29  1  0  0  0
 24 25  2  0  0  0
 25 26  1  0  0  0
 25 51  1  0  0  0
 26 27  2  0  0  0
 26 52  1  0  0  0
 27 28  1  0  0  0
 27 30  1  0  0  0
 28 29  2  0  0  0
 28 53  1  0  0  0
 29 54  1  0  0  0
 30 31  1  0  0  0
 30 55  1  0  0  0
 30 56  1  0  0  0
 31 57  1  0  0  0
M  END
> <s_m_source_file>
/home/yujie/leadopt/data/result/selection/PSK13/lig_30.sdf

> <i_m_source_file_index>
1

> <i_lp_mmshare_version>
51139

> <i_f3d_flags>
0

> <s_epik_input>
W2NIXTFbY0hdYyhbQ0gyXVtPSF0pW2NIXVtjSF1jMS1jKG8yKWMoQyg9TylbTkhdW0NIM10pYyhjMjMpYyhjKFtPSF0pW2NIXVtjSF0zKVtDSDJdTihbQ0gyXTQpW0NIMl1bQ0gyXUM0NVtDSDJdT1tDSDJdNQ==

> <s_epik_cmdline>
J2VwaWtfcHl0aG9uJywgJy1waHQnLCAnMi4wJywgJy1waCcsICc3LjAnLCAnLXRuJywgJzgnLCAnLW1hJywgJzIwMCcsICctaW1hZScsICc8aW5maWxlLm1hZT4nLCAnLW9tYWUnLCAnPG91dGZpbGUubWFlPic=

> <r_epik_Ionization_Penalty>
  1.4160

> <r_epik_Ionization_Penalty_Charging>
  0.0000

> <r_epik_Ionization_Penalty_Neutral>
  1.4160

> <r_epik_State_Penalty>
  1.0789

> <r_epik_Charging_Adjusted_Penalty>
1.0789

> <i_epik_Tot_Q>
0

> <i_epik_Tot_abs_Q>
0

> <s_lp_Force_Field>
OPLS3e

> <r_lp_Energy>
30.032

> <b_lp_Chiralities_Consistent>
1

> <s_lp_Variant>
/home/yujie/leadopt/data/result/selection/PSK13/lig_30.sdf:1-3

> <s_i_glide_gridfile>
glide-grid_PSK13

> <i_i_glide_lignum>
3

> <i_i_glide_rotatable_bonds>
8

> <r_i_docking_score>
-7.68706188832099

> <r_i_glide_ligand_efficiency>
-0.247969738332935

> <r_i_glide_ligand_efficiency_sa>
-0.778967337485984

> <r_i_glide_ligand_efficiency_ln>
-1.73366803597115

> <r_i_glide_gscore>
-8.76596188832099

> <r_i_glide_lipo>
-4.56340742284931

> <r_i_glide_hbond>
-0.168182988320738

> <r_i_glide_metal>
-0

> <r_i_glide_rewards>
-0.931558358114552

> <r_i_glide_evdw>
-47.9909286499023

> <r_i_glide_ecoul>
-8.38826656341553

> <r_i_glide_erotb>
0.554973297971061

> <r_i_glide_esite>
0

> <r_i_glide_emodel>
-85.0817234393698

> <r_i_glide_energy>
-56.3791952133179

> <r_i_glide_einternal>
3.22670602798462

> <i_i_glide_confnum>
302

> <i_i_glide_posenum>
34

> <r_i_glide_eff_state_penalty>
1.0789

$$$$
