/home/yujie/leadopt/data/result/selection/PSK13/lig_13.sdf:1
                    3D
 Schrodinger Suite 2020-3.
 49 52  0  0  1  0            999 V2000
    6.7556   25.6199    4.0065 C   0  0  0  0  0  0
    5.7340   25.4890    5.0350 N   0  0  0  0  0  0
    5.6952   26.2208    6.1571 C   0  0  0  0  0  0
    6.5116   27.0940    6.4386 O   0  0  0  0  0  0
    4.6070   25.8870    7.0331 C   0  0  0  0  0  0
    4.3305   24.5930    7.5226 C   0  0  0  0  0  0
    3.2595   24.6012    8.3655 O   0  0  0  0  0  0
    2.8182   25.8789    8.4355 C   0  0  0  0  0  0
    1.7141   26.2947    9.1786 C   0  0  0  0  0  0
    1.3880   27.6440    9.1015 C   0  0  0  0  0  0
    2.1369   28.5342    8.3364 C   0  0  0  0  0  0
    3.2709   28.1227    7.6097 C   0  0  0  0  0  0
    3.6111   26.7460    7.6415 C   0  0  0  0  0  0
    4.0704   29.1732    6.8366 C   0  0  0  0  0  0
    5.2177   29.6761    7.5959 N   0  0  0  0  0  0
    4.8885   30.3873    8.8253 C   0  0  0  0  0  0
    6.1645   31.1416    9.2006 C   0  0  0  0  0  0
    6.8834   31.3527    7.8638 C   0  0  0  0  0  0
    5.9773   30.6625    6.8419 C   0  0  0  0  0  0
    1.7342   29.8422    8.3119 O   0  0  0  0  0  0
    4.9407   23.2361    7.3249 C   0  0  0  0  0  0
    6.3073   23.0757    7.0684 C   0  0  0  0  0  0
    6.8383   21.8066    6.8548 C   0  0  0  0  0  0
    6.0098   20.6908    6.9318 C   0  0  0  0  0  0
    4.6527   20.8326    7.2069 C   0  0  0  0  0  0
    4.1200   22.1041    7.3990 C   0  0  0  0  0  0
    6.5340   19.4424    6.7451 O   0  0  0  0  0  0
    6.5188   24.9734    3.1603 H   0  0  0  0  0  0
    6.8131   26.6447    3.6424 H   0  0  0  0  0  0
    7.7351   25.3343    4.3946 H   0  0  0  0  0  0
    4.9922   24.8243    4.8726 H   0  0  0  0  0  0
    1.1364   25.5967    9.7652 H   0  0  0  0  0  0
    0.5324   28.0184    9.6415 H   0  0  0  0  0  0
    4.4240   28.7334    5.9045 H   0  0  0  0  0  0
    3.4266   30.0029    6.5419 H   0  0  0  0  0  0
    4.0245   31.0423    8.7089 H   0  0  0  0  0  0
    4.6004   29.6650    9.5893 H   0  0  0  0  0  0
    5.9297   32.0848    9.6966 H   0  0  0  0  0  0
    6.7694   30.5527    9.8916 H   0  0  0  0  0  0
    7.8773   30.9025    7.8715 H   0  0  0  0  0  0
    6.9976   32.4128    7.6316 H   0  0  0  0  0  0
    6.5351   30.1453    6.0617 H   0  0  0  0  0  0
    5.3364   31.3715    6.3128 H   0  0  0  0  0  0
    1.2378   30.1175    9.1093 H   0  0  0  0  0  0
    6.9671   23.9296    7.0243 H   0  0  0  0  0  0
    7.8906   21.6851    6.6471 H   0  0  0  0  0  0
    4.0107   19.9661    7.2647 H   0  0  0  0  0  0
    3.0631   22.2047    7.5990 H   0  0  0  0  0  0
    5.8508   18.7633    6.7769 H   0  0  0  0  0  0
  1  2  1  0  0  0
  1 28  1  0  0  0
  1 29  1  0  0  0
  1 30  1  0  0  0
  2  3  1  0  0  0
  2 31  1  0  0  0
  3  4  2  0  0  0
  3  5  1  0  0  0
  5 13  1  0  0  0
  5  6  2  0  0  0
  6  7  1  0  0  0
  6 21  1  0  0  0
  7  8  1  0  0  0
  8 13  1  0  0  0
  8  9  2  0  0  0
  9 10  1  0  0  0
  9 32  1  0  0  0
 10 11  2  0  0  0
 10 33  1  0  0  0
 11 12  1  0  0  0
 11 20  1  0  0  0
 12 13  2  0  0  0
 12 14  1  0  0  0
 14 15  1  0  0  0
 14 34  1  0  0  0
 14 35  1  0  0  0
 15 19  1  0  0  0
 15 16  1  0  0  0
 16 17  1  0  0  0
 16 36  1  0  0  0
 16 37  1  0  0  0
 17 18  1  0  0  0
 17 38  1  0  0  0
 17 39  1  0  0  0
 18 19  1  0  0  0
 18 40  1  0  0  0
 18 41  1  0  0  0
 19 42  1  0  0  0
 19 43  1  0  0  0
 20 44  1  0  0  0
 21 26  1  0  0  0
 21 22  2  0  0  0
 22 23  1  0  0  0
 22 45  1  0  0  0
 23 24  2  0  0  0
 23 46  1  0  0  0
 24 25  1  0  0  0
 24 27  1  0  0  0
 25 26  2  0  0  0
 25 47  1  0  0  0
 26 48  1  0  0  0
 27 49  1  0  0  0
M  END
> <s_m_source_file>
/home/yujie/leadopt/data/result/selection/PSK13/lig_13.sdf

> <i_m_source_file_index>
1

> <i_lp_mmshare_version>
51139

> <i_f3d_flags>
0

> <s_epik_input>
W2NIXTFbY0hdYyhbT0hdKVtjSF1bY0hdYzEtYyhvMiljKEMoPU8pW05IXVtDSDNdKWMoYzIzKWMoYyhbT0hdKVtjSF1bY0hdMylbQ0gyXU40W0NIMl1bQ0gyXVtDSDJdW0NIMl00

> <s_epik_cmdline>
J2VwaWtfcHl0aG9uJywgJy1waHQnLCAnMi4wJywgJy1waCcsICc3LjAnLCAnLXRuJywgJzgnLCAnLW1hJywgJzIwMCcsICctaW1hZScsICc8aW5maWxlLm1hZT4nLCAnLW9tYWUnLCAnPG91dGZpbGUubWFlPic=

> <r_epik_Ionization_Penalty>
  2.0409

> <r_epik_Ionization_Penalty_Charging>
  0.0000

> <r_epik_Ionization_Penalty_Neutral>
  2.0409

> <r_epik_State_Penalty>
  1.7207

> <r_epik_Charging_Adjusted_Penalty>
1.72071

> <i_epik_Tot_Q>
0

> <i_epik_Tot_abs_Q>
0

> <s_lp_Force_Field>
OPLS3e

> <r_lp_Energy>
25.1194

> <b_lp_Chiralities_Consistent>
1

> <s_lp_Variant>
/home/yujie/leadopt/data/result/selection/PSK13/lig_13.sdf:1-3

> <s_i_glide_gridfile>
glide-grid_PSK13

> <i_i_glide_lignum>
3

> <i_i_glide_rotatable_bonds>
7

> <r_i_docking_score>
-7.1001924662197

> <r_i_glide_ligand_efficiency>
-0.26297009134147

> <r_i_glide_ligand_efficiency_sa>
-0.788910273157705

> <r_i_glide_ligand_efficiency_ln>
-1.65280775031473

> <r_i_glide_gscore>
-8.8209024662197

> <r_i_glide_lipo>
-4.25527817999452

> <r_i_glide_hbond>
-0.468862040186042

> <r_i_glide_metal>
-0

> <r_i_glide_rewards>
-1.25971741291312

> <r_i_glide_evdw>
-45.1694755554199

> <r_i_glide_ecoul>
-7.68009233474731

> <r_i_glide_erotb>
0.573442794857073

> <r_i_glide_esite>
0

> <r_i_glide_emodel>
-80.6065274592959

> <r_i_glide_energy>
-52.8495678901672

> <r_i_glide_einternal>
3.09408044815063

> <i_i_glide_confnum>
16

> <i_i_glide_posenum>
175

> <r_i_glide_eff_state_penalty>
1.72071

$$$$
