/home/yujie/leadopt/data/result/selection/PSK13/lig_25.sdf:1
                    3D
 Schrodinger Suite 2020-3.
 58 63  0  0  1  0            999 V2000
    6.9343   19.4423    6.8601 O   0  0  0  0  0  0
    6.3450   20.6478    7.0914 C   0  0  0  0  0  0
    7.1415   21.7775    7.2415 C   0  0  0  0  0  0
    6.5461   23.0065    7.4994 C   0  0  0  0  0  0
    5.1525   23.1063    7.5433 C   0  0  0  0  0  0
    4.3610   21.9613    7.4163 C   0  0  0  0  0  0
    4.9592   20.7267    7.1953 C   0  0  0  0  0  0
    4.4939   24.4357    7.6416 C   0  0  0  0  0  0
    3.3501   24.4513    8.3792 O   0  0  0  0  0  0
    2.8850   25.7227    8.3481 C   0  0  0  0  0  0
    1.7261   26.1643    8.9887 C   0  0  0  0  0  0
    1.3805   27.4979    8.7903 C   0  0  0  0  0  0
    2.1583   28.3449    8.0002 C   0  0  0  0  0  0
    3.3555   27.9154    7.3981 C   0  0  0  0  0  0
    3.7208   26.5582    7.5682 C   0  0  0  0  0  0
    4.8009   25.7057    7.1314 C   0  0  0  0  0  0
    5.9756   26.0332    6.3719 C   0  0  0  0  0  0
    6.8069   26.8082    6.8336 O   0  0  0  0  0  0
    6.1208   25.4624    5.1618 N   0  0  0  0  0  0
    7.1027   25.7384    4.0854 C   0  0  0  0  0  0
    6.4207   24.6036    3.3111 C   0  0  0  0  0  0
    7.2372   23.6701    2.8280 F   0  0  0  0  0  0
    5.6517   24.1866    4.5640 C   0  0  0  0  0  0
    4.1927   28.8871    6.5734 C   0  0  0  0  0  0
    5.4360   29.3563    7.3448 N   0  3  1  0  0  0
    6.5346   29.9116    6.4421 C   0  0  0  0  0  0
    7.5131   30.5365    7.4229 C   0  0  0  0  0  0
    6.6693   30.9880    8.6307 C   0  0  0  0  0  0
    6.9051   32.4506    9.0575 C   0  0  0  0  0  0
    7.9200   31.9807   10.0411 O   0  0  0  0  0  0
    7.2662   30.6430   10.0020 C   0  0  0  0  0  0
    5.2343   30.4729    8.3883 C   0  0  0  0  0  0
    1.7380   29.5180    7.8084 O   0  5  0  0  0  0
    6.2812   18.7366    6.8437 H   0  0  0  0  0  0
    8.2165   21.6972    7.1731 H   0  0  0  0  0  0
    7.1703   23.8809    7.6114 H   0  0  0  0  0  0
    3.2829   22.0298    7.4524 H   0  0  0  0  0  0
    4.3444   19.8457    7.0826 H   0  0  0  0  0  0
    1.1196   25.4999    9.5869 H   0  0  0  0  0  0
    0.4824   27.8932    9.2440 H   0  0  0  0  0  0
    6.9671   26.7240    3.6419 H   0  0  0  0  0  0
    8.1335   25.5744    4.3999 H   0  0  0  0  0  0
    5.7828   24.9426    2.4926 H   0  0  0  0  0  0
    6.0177   23.2941    5.0647 H   0  0  0  0  0  0
    4.5756   24.1455    4.4532 H   0  0  0  0  0  0
    4.5639   28.3964    5.6723 H   0  0  0  0  0  0
    3.6739   29.7942    6.2552 H   0  0  0  0  0  0
    6.9337   29.0884    5.8520 H   0  0  0  0  0  0
    6.0302   30.6276    5.7906 H   0  0  0  0  0  0
    8.2556   29.7902    7.7108 H   0  0  0  0  0  0
    8.0498   31.3593    6.9486 H   0  0  0  0  0  0
    7.3439   33.1212    8.3190 H   0  0  0  0  0  0
    6.1340   32.9420    9.6436 H   0  0  0  0  0  0
    6.5406   30.6052   10.8237 H   0  0  0  0  0  0
    8.0065   29.8427   10.0409 H   0  0  0  0  0  0
    4.5747   31.2101    7.9272 H   0  0  0  0  0  0
    4.7135   30.0427    9.2477 H   0  0  0  0  0  0
    5.8083   28.5302    7.8024 H   0  0  0  0  0  0
  1  2  1  0  0  0
  1 34  1  0  0  0
  2  7  1  0  0  0
  2  3  2  0  0  0
  3  4  1  0  0  0
  3 35  1  0  0  0
  4  5  2  0  0  0
  4 36  1  0  0  0
  5  6  1  0  0  0
  5  8  1  0  0  0
  6  7  2  0  0  0
  6 37  1  0  0  0
  7 38  1  0  0  0
  8 16  2  0  0  0
  8  9  1  0  0  0
  9 10  1  0  0  0
 10 15  2  0  0  0
 10 11  1  0  0  0
 11 12  2  0  0  0
 11 39  1  0  0  0
 12 13  1  0  0  0
 12 40  1  0  0  0
 13 14  2  0  0  0
 13 33  1  0  0  0
 14 15  1  0  0  0
 14 24  1  0  0  0
 15 16  1  0  0  0
 16 17  1  0  0  0
 17 18  2  0  0  0
 17 19  1  0  0  0
 19 23  1  0  0  0
 19 20  1  0  0  0
 20 21  1  0  0  0
 20 41  1  0  0  0
 20 42  1  0  0  0
 21 22  1  0  0  0
 21 23  1  0  0  0
 21 43  1  0  0  0
 23 44  1  0  0  0
 23 45  1  0  0  0
 24 25  1  0  0  0
 24 46  1  0  0  0
 24 47  1  0  0  0
 25 32  1  0  0  0
 25 26  1  0  0  0
 25 58  1  0  0  0
 26 27  1  0  0  0
 26 48  1  0  0  0
 26 49  1  0  0  0
 27 28  1  0  0  0
 27 50  1  0  0  0
 27 51  1  0  0  0
 28 31  1  0  0  0
 28 29  1  0  0  0
 28 32  1  0  0  0
 29 30  1  0  0  0
 29 52  1  0  0  0
 29 53  1  0  0  0
 30 31  1  0  0  0
 31 54  1  0  0  0
 31 55  1  0  0  0
 32 56  1  0  0  0
 32 57  1  0  0  0
M  CHG  2  25   1  33  -1
M  END
> <s_m_source_file>
/home/yujie/leadopt/data/result/selection/PSK13/lig_25.sdf

> <i_m_source_file_index>
1

> <i_lp_mmshare_version>
51139

> <i_f3d_flags>
0

> <s_epik_input>
W09IXWMxW2NIXVtjSF1jKFtjSF1bY0hdMSktYyhvMiljKEMoPU8pTjNbQ0gyXVtDSF0oRilbQ0gyXTMpYyhjMjQpYyhjKFtPSF0pW2NIXVtjSF00KVtDSDJdTihbQ0gyXTUpW0NIMl1bQ0gyXUM1NltDSDJdT1tDSDJdNg==

> <s_epik_cmdline>
J2VwaWtfcHl0aG9uJywgJy1waHQnLCAnMi4wJywgJy1waCcsICc3LjAnLCAnLXRuJywgJzgnLCAnLW1hJywgJzIwMCcsICctaW1hZScsICc8aW5maWxlLm1hZT4nLCAnLW9tYWUnLCAnPG91dGZpbGUubWFlPic=

> <r_lp_tautomer_probability>
1

> <r_epik_Ionization_Penalty>
  0.3288

> <r_epik_Ionization_Penalty_Charging>
  0.3278

> <r_epik_Ionization_Penalty_Neutral>
  0.0010

> <r_epik_State_Penalty>
  0.3024

> <r_epik_Charging_Adjusted_Penalty>
0.630174

> <i_epik_Tot_Q>
0

> <i_epik_Tot_abs_Q>
2

> <s_lp_Force_Field>
OPLS3e

> <r_lp_Energy>
19.0902

> <b_lp_Chiralities_Consistent>
1

> <s_lp_Variant>
/home/yujie/leadopt/data/result/selection/PSK13/lig_25.sdf:1-1

> <s_i_glide_gridfile>
glide-grid_PSK13

> <i_i_glide_lignum>
1

> <i_i_glide_rotatable_bonds>
6

> <r_i_docking_score>
-8.55422347933554

> <r_i_glide_ligand_efficiency>
-0.259218893313198

> <r_i_glide_ligand_efficiency_sa>
-0.831453498316548

> <r_i_glide_ligand_efficiency_ln>
-1.90241501040547

> <r_i_glide_gscore>
-8.85657947933554

> <r_i_glide_lipo>
-4.86088361139251

> <r_i_glide_hbond>
-0.110220662878959

> <r_i_glide_metal>
-0

> <r_i_glide_rewards>
-1.50017225811857

> <r_i_glide_evdw>
-44.3478660583496

> <r_i_glide_ecoul>
-4.35618209838867

> <r_i_glide_erotb>
0.490037384658271

> <r_i_glide_esite>
-0.00451971392798908

> <r_i_glide_emodel>
-71.3258477740638

> <r_i_glide_energy>
-48.7040481567383

> <r_i_glide_einternal>
5.29540729522705

> <i_i_glide_confnum>
342

> <i_i_glide_posenum>
348

> <r_i_glide_eff_state_penalty>
0.302356

$$$$
