/home/yujie/leadopt/data/result/selection/PSK13/lig_1.sdf:1
                    3D
 Schrodinger Suite 2020-3.
 52 55  0  0  1  0            999 V2000
    6.7631   25.6525    4.1013 C   0  0  0  0  0  0
    5.7340   25.4743    5.1140 N   0  0  0  0  0  0
    5.6835   26.1851    6.2493 C   0  0  0  0  0  0
    6.4812   27.0730    6.5462 O   0  0  0  0  0  0
    4.5824   25.8448    7.1018 C   0  0  0  0  0  0
    4.3005   24.5531    7.5918 C   0  0  0  0  0  0
    3.1923   24.5595    8.3860 O   0  0  0  0  0  0
    2.7243   25.8291    8.4018 C   0  0  0  0  0  0
    1.5636   26.2417    9.0559 C   0  0  0  0  0  0
    1.2124   27.5794    8.8990 C   0  0  0  0  0  0
    1.9991   28.4617    8.1616 C   0  0  0  0  0  0
    3.2063   28.0626    7.5576 C   0  0  0  0  0  0
    3.5481   26.6922    7.6408 C   0  0  0  0  0  0
    4.0862   29.0925    6.8484 C   0  0  0  0  0  0
    5.2550   29.5878    7.7288 N   0  3  0  0  0  0
    4.7310   30.3517    8.9729 C   0  0  0  0  0  0
    5.9202   30.8039    9.8360 C   0  0  0  0  0  0
    6.9519   31.6166    9.0335 C   0  0  0  0  0  0
    7.4040   30.8617    7.7710 C   0  0  0  0  0  0
    6.2168   30.4540    6.8853 C   0  0  0  0  0  0
    1.5913   29.6488    8.0412 O   0  5  0  0  0  0
    4.9216   23.2056    7.4041 C   0  0  0  0  0  0
    4.1016   22.0736    7.4301 C   0  0  0  0  0  0
    4.6426   20.8094    7.2115 C   0  0  0  0  0  0
    6.0036   20.6790    6.9559 C   0  0  0  0  0  0
    6.8335   21.7961    6.9416 C   0  0  0  0  0  0
    6.2956   23.0591    7.1835 C   0  0  0  0  0  0
    6.5342   19.4424    6.7293 O   0  0  0  0  0  0
    6.6692   24.8894    3.3259 H   0  0  0  0  0  0
    6.6729   26.6389    3.6418 H   0  0  0  0  0  0
    7.7604   25.5719    4.5414 H   0  0  0  0  0  0
    5.0076   24.7984    4.9380 H   0  0  0  0  0  0
    0.9570   25.5538    9.6268 H   0  0  0  0  0  0
    0.3045   27.9541    9.3528 H   0  0  0  0  0  0
    4.5296   28.6804    5.9413 H   0  0  0  0  0  0
    3.5511   29.9948    6.5480 H   0  0  0  0  0  0
    4.1357   31.1911    8.6111 H   0  0  0  0  0  0
    4.0720   29.6898    9.5387 H   0  0  0  0  0  0
    5.5467   31.3968   10.6720 H   0  0  0  0  0  0
    6.3964   29.9279   10.2812 H   0  0  0  0  0  0
    7.8130   31.8471    9.6609 H   0  0  0  0  0  0
    6.5195   32.5805    8.7513 H   0  0  0  0  0  0
    7.9652   29.9697    8.0578 H   0  0  0  0  0  0
    8.0944   31.4779    7.1943 H   0  0  0  0  0  0
    6.5366   29.8367    6.0418 H   0  0  0  0  0  0
    5.6498   31.3127    6.5179 H   0  0  0  0  0  0
    3.0397   22.1671    7.6090 H   0  0  0  0  0  0
    3.9985   19.9394    7.2251 H   0  0  0  0  0  0
    7.8909   21.6866    6.7525 H   0  0  0  0  0  0
    6.9481   23.9200    7.1789 H   0  0  0  0  0  0
    5.8475   18.7668    6.7083 H   0  0  0  0  0  0
    5.7732   28.7749    8.0491 H   0  0  0  0  0  0
  1  2  1  0  0  0
  1 29  1  0  0  0
  1 30  1  0  0  0
  1 31  1  0  0  0
  2  3  1  0  0  0
  2 32  1  0  0  0
  3  4  2  0  0  0
  3  5  1  0  0  0
  5 13  1  0  0  0
  5  6  2  0  0  0
  6  7  1  0  0  0
  6 22  1  0  0  0
  7  8  1  0  0  0
  8 13  1  0  0  0
  8  9  2  0  0  0
  9 10  1  0  0  0
  9 33  1  0  0  0
 10 11  2  0  0  0
 10 34  1  0  0  0
 11 12  1  0  0  0
 11 21  1  0  0  0
 12 13  2  0  0  0
 12 14  1  0  0  0
 14 15  1  0  0  0
 14 35  1  0  0  0
 14 36  1  0  0  0
 15 20  1  0  0  0
 15 16  1  0  0  0
 15 52  1  0  0  0
 16 17  1  0  0  0
 16 37  1  0  0  0
 16 38  1  0  0  0
 17 18  1  0  0  0
 17 39  1  0  0  0
 17 40  1  0  0  0
 18 19  1  0  0  0
 18 41  1  0  0  0
 18 42  1  0  0  0
 19 20  1  0  0  0
 19 43  1  0  0  0
 19 44  1  0  0  0
 20 45  1  0  0  0
 20 46  1  0  0  0
 22 27  1  0  0  0
 22 23  2  0  0  0
 23 24  1  0  0  0
 23 47  1  0  0  0
 24 25  2  0  0  0
 24 48  1  0  0  0
 25 26  1  0  0  0
 25 28  1  0  0  0
 26 27  2  0  0  0
 26 49  1  0  0  0
 27 50  1  0  0  0
 28 51  1  0  0  0
M  CHG  2  15   1  21  -1
M  END
> <s_m_source_file>
/home/yujie/leadopt/data/result/selection/PSK13/lig_1.sdf

> <i_m_source_file_index>
1

> <i_lp_mmshare_version>
51139

> <i_f3d_flags>
0

> <s_epik_input>
W2NIXTFbY0hdYyhbT0hdKVtjSF1bY0hdYzEtYyhvMiljKEMoPU8pW05IXVtDSDNdKWMoYzIzKWMoYyhbT0hdKVtjSF1bY0hdMylbQ0gyXU40W0NIMl1bQ0gyXVtDSDJdW0NIMl1bQ0gyXTQ=

> <s_epik_cmdline>
J2VwaWtfcHl0aG9uJywgJy1waHQnLCAnMi4wJywgJy1waCcsICc3LjAnLCAnLXRuJywgJzgnLCAnLW1hJywgJzIwMCcsICctaW1hZScsICc8aW5maWxlLm1hZT4nLCAnLW9tYWUnLCAnPG91dGZpbGUubWFlPic=

> <r_lp_tautomer_probability>
1

> <r_epik_Ionization_Penalty>
  0.4484

> <r_epik_Ionization_Penalty_Charging>
  0.4474

> <r_epik_Ionization_Penalty_Neutral>
  0.0010

> <r_epik_State_Penalty>
  0.4447

> <r_epik_Charging_Adjusted_Penalty>
0.892126

> <i_epik_Tot_Q>
0

> <i_epik_Tot_abs_Q>
2

> <s_lp_Force_Field>
OPLS3e

> <r_lp_Energy>
25.3188

> <b_lp_Chiralities_Consistent>
1

> <s_lp_Variant>
/home/yujie/leadopt/data/result/selection/PSK13/lig_1.sdf:1-2

> <s_i_glide_gridfile>
glide-grid_PSK13

> <i_i_glide_lignum>
2

> <i_i_glide_rotatable_bonds>
6

> <r_i_docking_score>
-8.21795776967201

> <r_i_glide_ligand_efficiency>
-0.293498491774

> <r_i_glide_ligand_efficiency_sa>
-0.891234282393144

> <r_i_glide_ligand_efficiency_ln>
-1.89694594296511

> <r_i_glide_gscore>
-8.66268676967201

> <r_i_glide_lipo>
-4.38520791935446

> <r_i_glide_hbond>
-0.330986223508908

> <r_i_glide_metal>
-0

> <r_i_glide_rewards>
-1.38748470331113

> <r_i_glide_evdw>
-47.3721008300781

> <r_i_glide_ecoul>
-4.84385585784912

> <r_i_glide_erotb>
0.536175496683765

> <r_i_glide_esite>
0

> <r_i_glide_emodel>
-75.251419111156

> <r_i_glide_energy>
-52.2159566879272

> <r_i_glide_einternal>
2.07105803489685

> <i_i_glide_confnum>
11

> <i_i_glide_posenum>
125

> <r_i_glide_eff_state_penalty>
0.444729

$$$$
