/home/yujie/leadopt/data/result/selection/PSK13/lig_21.sdf:1
                    3D
 Schrodinger Suite 2020-3.
 52 55  0  0  1  0            999 V2000
    6.7618   25.4521    4.1348 C   0  0  0  0  0  0
    5.7340   25.3323    5.1587 N   0  0  0  0  0  0
    5.6829   26.0853    6.2645 C   0  0  0  0  0  0
    6.4891   26.9722    6.5395 O   0  0  0  0  0  0
    4.5610   25.7966    7.1120 C   0  0  0  0  0  0
    4.2398   24.5343    7.6412 C   0  0  0  0  0  0
    3.1267   24.5846    8.4271 O   0  0  0  0  0  0
    2.6995   25.8695    8.4140 C   0  0  0  0  0  0
    1.5586   26.3403    9.0620 C   0  0  0  0  0  0
    1.2657   27.6888    8.8853 C   0  0  0  0  0  0
    2.0839   28.5218    8.1236 C   0  0  0  0  0  0
    3.2565   28.0574    7.5035 C   0  0  0  0  0  0
    3.5545   26.6848    7.6322 C   0  0  0  0  0  0
    4.1299   29.0167    6.6945 C   0  0  0  0  0  0
    5.3183   29.6087    7.4884 N   0  3  1  0  0  0
    6.1390   30.5035    6.5291 C   0  0  0  0  0  0
    7.2923   31.1837    7.2829 C   0  0  0  0  0  0
    6.7778   32.0002    8.4796 C   0  0  0  0  0  0
    5.9746   31.1181    9.4479 C   0  0  0  0  0  0
    5.4831   31.8411   10.4414 F   0  0  0  0  0  0
    6.8064   30.2424    9.9949 F   0  0  0  0  0  0
    4.8217   30.3708    8.7493 C   0  0  0  0  0  0
    1.7325   29.7271    7.9890 O   0  5  0  0  0  0
    4.8498   23.1807    7.5246 C   0  0  0  0  0  0
    4.0313   22.0462    7.5122 C   0  0  0  0  0  0
    4.5932   20.7837    7.3572 C   0  0  0  0  0  0
    5.9719   20.6679    7.2122 C   0  0  0  0  0  0
    6.7962   21.7864    7.2389 C   0  0  0  0  0  0
    6.2358   23.0428    7.4096 C   0  0  0  0  0  0
    6.5340   19.4426    7.0213 O   0  0  0  0  0  0
    6.8516   24.5155    3.5845 H   0  0  0  0  0  0
    6.4964   26.2414    3.4313 H   0  0  0  0  0  0
    7.7384   25.6879    4.5633 H   0  0  0  0  0  0
    4.9885   24.6711    5.0006 H   0  0  0  0  0  0
    0.9256   25.6851    9.6428 H   0  0  0  0  0  0
    0.3871   28.1129    9.3479 H   0  0  0  0  0  0
    4.5441   28.5344    5.8093 H   0  0  0  0  0  0
    3.5693   29.8795    6.3258 H   0  0  0  0  0  0
    6.5288   29.8316    5.7662 H   0  0  0  0  0  0
    5.4541   31.2281    6.0795 H   0  0  0  0  0  0
    8.0095   30.4332    7.6185 H   0  0  0  0  0  0
    7.8305   31.8410    6.6000 H   0  0  0  0  0  0
    7.6084   32.4782    9.0016 H   0  0  0  0  0  0
    6.1410   32.8027    8.1084 H   0  0  0  0  0  0
    4.0284   31.0432    8.4216 H   0  0  0  0  0  0
    4.3773   29.6360    9.4230 H   0  0  0  0  0  0
    2.9582   22.1398    7.6038 H   0  0  0  0  0  0
    3.9621   19.9059    7.3355 H   0  0  0  0  0  0
    7.8651   21.6744    7.1310 H   0  0  0  0  0  0
    6.8882   23.9026    7.4364 H   0  0  0  0  0  0
    5.8651   18.7610    6.8962 H   0  0  0  0  0  0
    5.9139   28.8446    7.7963 H   0  0  0  0  0  0
  1  2  1  0  0  0
  1 31  1  0  0  0
  1 32  1  0  0  0
  1 33  1  0  0  0
  2  3  1  0  0  0
  2 34  1  0  0  0
  3  4  2  0  0  0
  3  5  1  0  0  0
  5 13  1  0  0  0
  5  6  2  0  0  0
  6  7  1  0  0  0
  6 24  1  0  0  0
  7  8  1  0  0  0
  8 13  1  0  0  0
  8  9  2  0  0  0
  9 10  1  0  0  0
  9 35  1  0  0  0
 10 11  2  0  0  0
 10 36  1  0  0  0
 11 12  1  0  0  0
 11 23  1  0  0  0
 12 13  2  0  0  0
 12 14  1  0  0  0
 14 15  1  0  0  0
 14 37  1  0  0  0
 14 38  1  0  0  0
 15 22  1  0  0  0
 15 16  1  0  0  0
 15 52  1  0  0  0
 16 17  1  0  0  0
 16 39  1  0  0  0
 16 40  1  0  0  0
 17 18  1  0  0  0
 17 41  1  0  0  0
 17 42  1  0  0  0
 18 19  1  0  0  0
 18 43  1  0  0  0
 18 44  1  0  0  0
 19 20  1  0  0  0
 19 21  1  0  0  0
 19 22  1  0  0  0
 22 45  1  0  0  0
 22 46  1  0  0  0
 24 29  1  0  0  0
 24 25  2  0  0  0
 25 26  1  0  0  0
 25 47  1  0  0  0
 26 27  2  0  0  0
 26 48  1  0  0  0
 27 28  1  0  0  0
 27 30  1  0  0  0
 28 29  2  0  0  0
 28 49  1  0  0  0
 29 50  1  0  0  0
 30 51  1  0  0  0
M  CHG  2  15   1  23  -1
M  END
> <s_m_source_file>
/home/yujie/leadopt/data/result/selection/PSK13/lig_21.sdf

> <i_m_source_file_index>
1

> <i_lp_mmshare_version>
51139

> <i_f3d_flags>
0

> <s_epik_input>
W2NIXTFbY0hdYyhbT0hdKVtjSF1bY0hdYzEtYyhvMiljKEMoPU8pW05IXVtDSDNdKWMoYzIzKWMoYyhbT0hdKVtjSF1bY0hdMylbQ0gyXU4oW0NIMl00KVtDSDJdW0NIMl1bQ0gyXUM0KEYpRg==

> <s_epik_cmdline>
J2VwaWtfcHl0aG9uJywgJy1waHQnLCAnMi4wJywgJy1waCcsICc3LjAnLCAnLXRuJywgJzgnLCAnLW1hJywgJzIwMCcsICctaW1hZScsICc8aW5maWxlLm1hZT4nLCAnLW9tYWUnLCAnPG91dGZpbGUubWFlPic=

> <r_epik_Ionization_Penalty>
  0.8985

> <r_epik_Ionization_Penalty_Charging>
  0.8975

> <r_epik_Ionization_Penalty_Neutral>
  0.0010

> <r_epik_State_Penalty>
  0.7967

> <r_epik_Charging_Adjusted_Penalty>
1.69424

> <i_epik_Tot_Q>
0

> <i_epik_Tot_abs_Q>
2

> <s_lp_Force_Field>
OPLS3e

> <r_lp_Energy>
26.8994

> <b_lp_Chiralities_Consistent>
1

> <s_lp_Variant>
/home/yujie/leadopt/data/result/selection/PSK13/lig_21.sdf:1-2

> <s_i_glide_gridfile>
glide-grid_PSK13

> <i_i_glide_lignum>
2

> <i_i_glide_rotatable_bonds>
6

> <r_i_docking_score>
-7.64234556347953

> <r_i_glide_ligand_efficiency>
-0.254744852115984

> <r_i_glide_ligand_efficiency_sa>
-0.791551484321788

> <r_i_glide_ligand_efficiency_ln>
-1.73642418204687

> <r_i_glide_gscore>
-8.43909356347953

> <r_i_glide_lipo>
-4.57190097302707

> <r_i_glide_hbond>
-0.32

> <r_i_glide_metal>
-0

> <r_i_glide_rewards>
-1.19275005660085

> <r_i_glide_evdw>
-44.0379447937012

> <r_i_glide_ecoul>
-3.71204471588135

> <r_i_glide_erotb>
0.455717204978606

> <r_i_glide_esite>
-0.0514557917629644

> <r_i_glide_emodel>
-70.7918783460103

> <r_i_glide_energy>
-47.7499895095825

> <r_i_glide_einternal>
2.43595814704895

> <i_i_glide_confnum>
12

> <i_i_glide_posenum>
35

> <r_i_glide_eff_state_penalty>
0.796748

$$$$
