/home/yujie/leadopt/data/result/selection/PSK13/lig_32.sdf:1
                    3D
 Schrodinger Suite 2020-3.
 57 62  0  0  1  0            999 V2000
    6.7787   25.5257    3.9719 C   0  0  0  0  0  0
    5.7936   25.3699    5.0312 N   0  0  0  0  0  0
    5.7335   26.1400    6.1239 C   0  0  0  0  0  0
    6.4775   27.0937    6.3514 O   0  0  0  0  0  0
    4.6847   25.7738    7.0256 C   0  0  0  0  0  0
    4.4774   24.4872    7.5708 C   0  0  0  0  0  0
    3.4282   24.4876    8.4374 O   0  0  0  0  0  0
    2.9185   25.7369    8.4432 C   0  0  0  0  0  0
    1.8121   26.1305    9.1923 C   0  0  0  0  0  0
    1.4024   27.4478    9.0386 C   0  0  0  0  0  0
    2.0756   28.3284    8.1953 C   0  0  0  0  0  0
    3.2333   27.9492    7.4907 C   0  0  0  0  0  0
    3.6526   26.6021    7.6021 C   0  0  0  0  0  0
    3.8984   28.9508    6.5565 C   0  0  0  0  0  0
    5.2050   29.5880    7.0502 N   0  3  1  0  0  0
    5.6305   30.7187    6.0990 C   0  0  0  0  0  0
    6.5340   31.6364    6.9114 C   0  0  0  0  0  0
    6.4724   31.1388    8.3554 C   0  0  0  0  0  0
    7.7913   30.5259    8.8622 C   0  0  0  0  0  0
    7.7799   31.4294   10.0410 O   0  0  0  0  0  0
    6.6275   32.1827    9.4711 C   0  0  0  0  0  0
    5.2182   30.2443    8.4373 C   0  0  0  0  0  0
    1.5753   29.4756    8.0372 O   0  5  0  0  0  0
    5.1185   23.1402    7.4137 C   0  0  0  0  0  0
    4.3409   21.9979    7.6418 C   0  0  0  0  0  0
    4.8378   20.7050    7.4958 C   0  0  0  0  0  0
    6.1608   20.5862    7.0685 C   0  0  0  0  0  0
    6.9278   19.4729    6.8045 N   0  0  0  0  0  0
    8.1625   19.8542    6.3451 C   0  0  0  0  0  0
    8.2553   21.2292    6.3792 C   0  0  0  0  0  0
    6.9875   21.7237    6.8239 C   0  0  0  0  0  0
    6.4581   23.0039    7.0359 C   0  0  0  0  0  0
    6.6409   18.5082    6.8964 H   0  0  0  0  0  0
    6.9476   24.5730    3.4704 H   0  0  0  0  0  0
    6.4172   26.2420    3.2391 H   0  0  0  0  0  0
    7.7353   25.8808    4.3560 H   0  0  0  0  0  0
    5.0938   24.6520    4.9185 H   0  0  0  0  0  0
    1.2975   25.4410    9.8397 H   0  0  0  0  0  0
    0.5346   27.8033    9.5688 H   0  0  0  0  0  0
    4.2099   28.4647    5.6394 H   0  0  0  0  0  0
    3.2407   29.7769    6.2819 H   0  0  0  0  0  0
    6.0714   30.2264    5.2436 H   0  0  0  0  0  0
    4.7359   31.2559    5.7756 H   0  0  0  0  0  0
    7.5471   31.6643    6.5076 H   0  0  0  0  0  0
    6.1404   32.6434    6.8464 H   0  0  0  0  0  0
    7.7726   29.4898    9.1825 H   0  0  0  0  0  0
    8.6881   30.7520    8.2836 H   0  0  0  0  0  0
    6.9872   33.1661    9.1654 H   0  0  0  0  0  0
    5.8187   32.2352   10.2024 H   0  0  0  0  0  0
    4.2803   30.8009    8.5240 H   0  0  0  0  0  0
    5.2150   29.4557    9.1918 H   0  0  0  0  0  0
    3.3078   22.1069    7.9381 H   0  0  0  0  0  0
    4.2133   19.8425    7.6791 H   0  0  0  0  0  0
    8.8810   19.1090    6.0386 H   0  0  0  0  0  0
    9.1220   21.8075    6.0935 H   0  0  0  0  0  0
    7.0794   23.8708    6.8742 H   0  0  0  0  0  0
    5.8978   28.8433    7.0487 H   0  0  0  0  0  0
  1  2  1  0  0  0
  1 34  1  0  0  0
  1 35  1  0  0  0
  1 36  1  0  0  0
  2  3  1  0  0  0
  2 37  1  0  0  0
  3  4  2  0  0  0
  3  5  1  0  0  0
  5 13  1  0  0  0
  5  6  2  0  0  0
  6  7  1  0  0  0
  6 24  1  0  0  0
  7  8  1  0  0  0
  8 13  1  0  0  0
  8  9  2  0  0  0
  9 10  1  0  0  0
  9 38  1  0  0  0
 10 11  2  0  0  0
 10 39  1  0  0  0
 11 12  1  0  0  0
 11 23  1  0  0  0
 12 13  2  0  0  0
 12 14  1  0  0  0
 14 15  1  0  0  0
 14 40  1  0  0  0
 14 41  1  0  0  0
 15 22  1  0  0  0
 15 16  1  0  0  0
 15 57  1  0  0  0
 16 17  1  0  0  0
 16 42  1  0  0  0
 16 43  1  0  0  0
 17 18  1  0  0  0
 17 44  1  0  0  0
 17 45  1  0  0  0
 18 21  1  0  0  0
 18 19  1  0  0  0
 18 22  1  0  0  0
 19 20  1  0  0  0
 19 46  1  0  0  0
 19 47  1  0  0  0
 20 21  1  0  0  0
 21 48  1  0  0  0
 21 49  1  0  0  0
 22 50  1  0  0  0
 22 51  1  0  0  0
 24 32  1  0  0  0
 24 25  2  0  0  0
 25 26  1  0  0  0
 25 52  1  0  0  0
 26 27  2  0  0  0
 26 53  1  0  0  0
 27 31  1  0  0  0
 27 28  1  0  0  0
 28 33  1  0  0  0
 28 29  1  0  0  0
 29 30  2  0  0  0
 29 54  1  0  0  0
 30 31  1  0  0  0
 30 55  1  0  0  0
 31 32  2  0  0  0
 32 56  1  0  0  0
M  CHG  2  15   1  23  -1
M  END
> <s_m_source_file>
/home/yujie/leadopt/data/result/selection/PSK13/lig_32.sdf

> <i_m_source_file_index>
1

> <i_lp_mmshare_version>
51139

> <i_f3d_flags>
0

> <s_epik_input>
W25IXTFbY0hdW2NIXWMoYzEyKVtjSF1jKFtjSF1bY0hdMiktYyhvMyljKEMoPU8pW05IXVtDSDNdKWMoYzM0KWMoYyhbT0hdKVtjSF1bY0hdNClbQ0gyXU4oW0NIMl01KVtDSDJdW0NIMl1DNTZbQ0gyXU9bQ0gyXTY=

> <s_epik_cmdline>
J2VwaWtfcHl0aG9uJywgJy1waHQnLCAnMi4wJywgJy1waCcsICc3LjAnLCAnLXRuJywgJzgnLCAnLW1hJywgJzIwMCcsICctaW1hZScsICc8aW5maWxlLm1hZT4nLCAnLW9tYWUnLCAnPG91dGZpbGUubWFlPic=

> <r_epik_Ionization_Penalty>
  0.4401

> <r_epik_Ionization_Penalty_Charging>
  0.4401

> <r_epik_Ionization_Penalty_Neutral>
  0.0000

> <r_epik_State_Penalty>
  0.8953

> <r_epik_Charging_Adjusted_Penalty>
1.3354

> <i_epik_Tot_Q>
0

> <i_epik_Tot_abs_Q>
2

> <s_lp_Force_Field>
OPLS3e

> <r_lp_Energy>
30.5136

> <b_lp_Chiralities_Consistent>
1

> <s_lp_Variant>
/home/yujie/leadopt/data/result/selection/PSK13/lig_32.sdf:1-2

> <s_i_glide_gridfile>
glide-grid_PSK13

> <i_i_glide_lignum>
2

> <i_i_glide_rotatable_bonds>
5

> <r_i_docking_score>
-7.65808850774491

> <r_i_glide_ligand_efficiency>
-0.239315265867028

> <r_i_glide_ligand_efficiency_sa>
-0.75977860870101

> <r_i_glide_ligand_efficiency_ln>
-1.71485476849264

> <r_i_glide_gscore>
-8.55343850774491

> <r_i_glide_lipo>
-4.79385322631788

> <r_i_glide_hbond>
0

> <r_i_glide_metal>
-0

> <r_i_glide_rewards>
-1.57641852363448

> <r_i_glide_evdw>
-44.3022727966309

> <r_i_glide_ecoul>
-2.63594222068787

> <r_i_glide_erotb>
0.427338215142172

> <r_i_glide_esite>
0

> <r_i_glide_emodel>
-69.0554330032554

> <r_i_glide_energy>
-46.9382150173187

> <r_i_glide_einternal>
2.57218194007874

> <i_i_glide_confnum>
130

> <i_i_glide_posenum>
46

> <r_i_glide_eff_state_penalty>
0.89535

$$$$
