/home/yujie/leadopt/data/result/selection/PSK13/lig_6.sdf:1
                    3D
 Schrodinger Suite 2020-3.
 54 58  0  0  1  0            999 V2000
    6.7506   25.6197    3.8542 C   0  0  0  0  0  0
    5.7108   25.5741    4.8748 N   0  0  0  0  0  0
    5.8116   26.1375    6.0857 C   0  0  0  0  0  0
    6.7929   26.7629    6.4773 O   0  0  0  0  0  0
    4.6871   25.8872    6.9405 C   0  0  0  0  0  0
    4.3456   24.6216    7.4518 C   0  0  0  0  0  0
    3.2407   24.6839    8.2455 O   0  0  0  0  0  0
    2.8412   25.9776    8.2588 C   0  0  0  0  0  0
    1.7362   26.4554    8.9655 C   0  0  0  0  0  0
    1.4709   27.8167    8.8598 C   0  0  0  0  0  0
    2.2653   28.6553    8.0796 C   0  0  0  0  0  0
    3.3813   28.1725    7.3697 C   0  0  0  0  0  0
    3.6854   26.7917    7.4654 C   0  0  0  0  0  0
    4.2336   29.1350    6.5573 C   0  0  0  0  0  0
    5.4293   29.5065    7.3033 N   0  0  2  0  0  0
    6.4755   30.0100    6.4413 C   0  0  0  0  0  0
    7.5244   30.5729    7.3853 C   0  0  0  0  0  0
    6.6926   31.0323    8.5937 C   0  0  0  0  0  0
    6.9324   32.4791    9.0466 C   0  0  0  0  0  0
    7.9253   31.9807   10.0380 O   0  0  0  0  0  0
    7.2670   30.6452    9.9597 C   0  0  0  0  0  0
    5.2595   30.5730    8.2834 C   0  0  0  0  0  0
    1.9276   29.9807    8.0416 O   0  0  0  0  0  0
    4.9377   23.2550    7.3460 C   0  0  0  0  0  0
    6.3161   23.0788    7.1906 C   0  0  0  0  0  0
    6.8476   21.7983    7.0945 C   0  0  0  0  0  0
    6.0046   20.6953    7.1801 C   0  0  0  0  0  0
    4.6322   20.8542    7.3443 C   0  0  0  0  0  0
    4.0994   22.1366    7.4250 C   0  0  0  0  0  0
    6.5345   19.4427    7.0854 O   0  0  0  0  0  0
    6.6777   26.5319    3.2613 H   0  0  0  0  0  0
    7.7464   25.5773    4.2954 H   0  0  0  0  0  0
    6.6474   24.7677    3.1827 H   0  0  0  0  0  0
    4.8320   25.1450    4.6242 H   0  0  0  0  0  0
    1.1234   25.7983    9.5656 H   0  0  0  0  0  0
    0.6316   28.2349    9.3981 H   0  0  0  0  0  0
    4.5274   28.6291    5.6358 H   0  0  0  0  0  0
    3.6730   30.0194    6.2506 H   0  0  0  0  0  0
    6.8583   29.1840    5.8443 H   0  0  0  0  0  0
    6.0776   30.7386    5.7344 H   0  0  0  0  0  0
    8.2459   29.7952    7.6410 H   0  0  0  0  0  0
    8.0733   31.3842    6.9069 H   0  0  0  0  0  0
    7.3911   33.1546    8.3258 H   0  0  0  0  0  0
    6.1342   32.9547    9.6154 H   0  0  0  0  0  0
    6.5371   30.5818   10.7728 H   0  0  0  0  0  0
    8.0061   29.8445    9.9862 H   0  0  0  0  0  0
    4.6536   31.3757    7.8599 H   0  0  0  0  0  0
    4.7010   30.2248    9.1543 H   0  0  0  0  0  0
    1.4057   30.2420    8.8157 H   0  0  0  0  0  0
    6.9843   23.9259    7.1479 H   0  0  0  0  0  0
    7.9114   21.6599    6.9687 H   0  0  0  0  0  0
    3.9805   19.9942    7.4048 H   0  0  0  0  0  0
    3.0326   22.2573    7.5481 H   0  0  0  0  0  0
    5.8514   18.7696    7.0112 H   0  0  0  0  0  0
  1  2  1  0  0  0
  1 31  1  0  0  0
  1 32  1  0  0  0
  1 33  1  0  0  0
  2  3  1  0  0  0
  2 34  1  0  0  0
  3  4  2  0  0  0
  3  5  1  0  0  0
  5 13  1  0  0  0
  5  6  2  0  0  0
  6  7  1  0  0  0
  6 24  1  0  0  0
  7  8  1  0  0  0
  8 13  1  0  0  0
  8  9  2  0  0  0
  9 10  1  0  0  0
  9 35  1  0  0  0
 10 11  2  0  0  0
 10 36  1  0  0  0
 11 12  1  0  0  0
 11 23  1  0  0  0
 12 13  2  0  0  0
 12 14  1  0  0  0
 14 15  1  0  0  0
 14 37  1  0  0  0
 14 38  1  0  0  0
 15 22  1  0  0  0
 15 16  1  0  0  0
 16 17  1  0  0  0
 16 39  1  0  0  0
 16 40  1  0  0  0
 17 18  1  0  0  0
 17 41  1  0  0  0
 17 42  1  0  0  0
 18 21  1  0  0  0
 18 19  1  0  0  0
 18 22  1  0  0  0
 19 20  1  0  0  0
 19 43  1  0  0  0
 19 44  1  0  0  0
 20 21  1  0  0  0
 21 45  1  0  0  0
 21 46  1  0  0  0
 22 47  1  0  0  0
 22 48  1  0  0  0
 23 49  1  0  0  0
 24 29  1  0  0  0
 24 25  2  0  0  0
 25 26  1  0  0  0
 25 50  1  0  0  0
 26 27  2  0  0  0
 26 51  1  0  0  0
 27 28  1  0  0  0
 27 30  1  0  0  0
 28 29  2  0  0  0
 28 52  1  0  0  0
 29 53  1  0  0  0
 30 54  1  0  0  0
M  END
> <s_m_source_file>
/home/yujie/leadopt/data/result/selection/PSK13/lig_6.sdf

> <i_m_source_file_index>
1

> <i_lp_mmshare_version>
51139

> <i_f3d_flags>
0

> <s_epik_input>
W2NIXTFbY0hdYyhbT0hdKVtjSF1bY0hdYzEtYyhvMiljKEMoPU8pW05IXVtDSDNdKWMoYzIzKWMoYyhbT0hdKVtjSF1bY0hdMylbQ0gyXU4oW0NIMl00KVtDSDJdW0NIMl1DNDVbQ0gyXU9bQ0gyXTU=

> <s_epik_cmdline>
J2VwaWtfcHl0aG9uJywgJy1waHQnLCAnMi4wJywgJy1waCcsICc3LjAnLCAnLXRuJywgJzgnLCAnLW1hJywgJzIwMCcsICctaW1hZScsICc8aW5maWxlLm1hZT4nLCAnLW9tYWUnLCAnPG91dGZpbGUubWFlPic=

> <r_epik_Ionization_Penalty>
  1.4194

> <r_epik_Ionization_Penalty_Charging>
  0.0000

> <r_epik_Ionization_Penalty_Neutral>
  1.4194

> <r_epik_State_Penalty>
  1.8682

> <r_epik_Charging_Adjusted_Penalty>
1.86819

> <i_epik_Tot_Q>
0

> <i_epik_Tot_abs_Q>
0

> <s_lp_Force_Field>
OPLS3e

> <r_lp_Energy>
24.7799

> <b_lp_Chiralities_Consistent>
1

> <s_lp_Variant>
/home/yujie/leadopt/data/result/selection/PSK13/lig_6.sdf:1-3

> <s_i_glide_gridfile>
glide-grid_PSK13

> <i_i_glide_lignum>
3

> <i_i_glide_rotatable_bonds>
7

> <r_i_docking_score>
-7.15326085553782

> <r_i_glide_ligand_efficiency>
-0.238442028517927

> <r_i_glide_ligand_efficiency_sa>
-0.740894820956504

> <r_i_glide_ligand_efficiency_ln>
-1.6252988073978

> <r_i_glide_gscore>
-9.02145085553782

> <r_i_glide_lipo>
-4.63803867852276

> <r_i_glide_hbond>
-0.43835358478046

> <r_i_glide_metal>
-0

> <r_i_glide_rewards>
-0.960052920806514

> <r_i_glide_evdw>
-47.5084762573242

> <r_i_glide_ecoul>
-7.20983982086182

> <r_i_glide_erotb>
0.471894114567394

> <r_i_glide_esite>
0

> <r_i_glide_emodel>
-82.3279661258914

> <r_i_glide_energy>
-54.718316078186

> <r_i_glide_einternal>
8.39686965942383

> <i_i_glide_confnum>
10

> <i_i_glide_posenum>
8

> <r_i_glide_eff_state_penalty>
1.86819

$$$$
