/home/yujie/leadopt/data/result/selection/PSK13/lig_35.sdf:1
                    3D
 Schrodinger Suite 2020-3.
 55 59  0  0  1  0            999 V2000
    6.7796   25.7489    4.1197 C   0  0  0  0  0  0
    5.7351   25.5775    5.1192 N   0  0  0  0  0  0
    5.6196   26.3334    6.2199 C   0  0  0  0  0  0
    6.3480   27.2842    6.4921 O   0  0  0  0  0  0
    4.5391   25.9417    7.0803 C   0  0  0  0  0  0
    4.3142   24.6330    7.5692 C   0  0  0  0  0  0
    3.1971   24.5960    8.3507 O   0  0  0  0  0  0
    2.6740   25.8432    8.3664 C   0  0  0  0  0  0
    1.4823   26.1918    8.9948 C   0  0  0  0  0  0
    1.0551   27.5081    8.8311 C   0  0  0  0  0  0
    1.8214   28.4460    8.1416 C   0  0  0  0  0  0
    3.0695   28.1115    7.5811 C   0  0  0  0  0  0
    3.4733   26.7503    7.6387 C   0  0  0  0  0  0
    3.9470   29.2194    7.0013 C   0  0  0  0  0  0
    5.0205   29.6222    8.0342 N   0  3  2  0  0  0
    4.4350   30.2580    9.3076 C   0  0  0  0  0  0
    5.6252   30.8930   10.0159 C   0  0  0  0  0  0
    6.6998   31.0976    8.9309 C   0  0  0  0  0  0
    8.0778   30.4948    9.2662 C   0  0  0  0  0  0
    8.5903   31.8422    9.6366 O   0  0  0  0  0  0
    7.4063   32.4632    8.9697 C   0  0  0  0  0  0
    6.0782   30.6449    7.5943 C   0  0  0  0  0  0
    1.3296   29.7186    8.0417 O   0  0  0  0  0  0
    4.9777   23.2865    7.4148 C   0  0  0  0  0  0
    4.1590   22.1431    7.4629 C   0  0  0  0  0  0
    4.7049   20.8613    7.3778 C   0  0  0  0  0  0
    6.0799   20.6989    7.2410 C   0  0  0  0  0  0
    6.9028   21.8191    7.1635 C   0  0  0  0  0  0
    6.3626   23.1022    7.2608 C   0  0  0  0  0  0
    7.2180   24.1462    7.2422 F   0  0  0  0  0  0
    6.6280   19.4430    7.2293 O   0  0  0  0  0  0
    6.6950   24.9837    3.3468 H   0  0  0  0  0  0
    6.6970   26.7243    3.6423 H   0  0  0  0  0  0
    7.7679   25.6707    4.5767 H   0  0  0  0  0  0
    5.0425   24.8661    4.9495 H   0  0  0  0  0  0
    0.9097   25.4476    9.5309 H   0  0  0  0  0  0
    0.1065   27.8182    9.2410 H   0  0  0  0  0  0
    4.4734   28.9171    6.0976 H   0  0  0  0  0  0
    3.4024   30.1351    6.7652 H   0  0  0  0  0  0
    3.7327   31.0121    8.9471 H   0  0  0  0  0  0
    3.8799   29.5159    9.8808 H   0  0  0  0  0  0
    5.3094   31.8360   10.4687 H   0  0  0  0  0  0
    5.9629   30.2436   10.8237 H   0  0  0  0  0  0
    8.1330   29.8276   10.1244 H   0  0  0  0  0  0
    8.6688   30.1249    8.4270 H   0  0  0  0  0  0
    7.7330   32.8655    8.0084 H   0  0  0  0  0  0
    6.9720   33.2245    9.6188 H   0  0  0  0  0  0
    6.7501   30.1491    6.8902 H   0  0  0  0  0  0
    5.5414   31.4400    7.0695 H   0  0  0  0  0  0
    0.9545   30.0188    8.8989 H   0  0  0  0  0  0
    3.0900   22.2390    7.5783 H   0  0  0  0  0  0
    4.0672   19.9909    7.4370 H   0  0  0  0  0  0
    7.9726   21.7054    7.0641 H   0  0  0  0  0  0
    7.5868   19.4540    7.2522 H   0  0  0  0  0  0
    5.5067   28.7658    8.2827 H   0  0  0  0  0  0
  1  2  1  0  0  0
  1 32  1  0  0  0
  1 33  1  0  0  0
  1 34  1  0  0  0
  2  3  1  0  0  0
  2 35  1  0  0  0
  3  4  2  0  0  0
  3  5  1  0  0  0
  5 13  1  0  0  0
  5  6  2  0  0  0
  6  7  1  0  0  0
  6 24  1  0  0  0
  7  8  1  0  0  0
  8 13  1  0  0  0
  8  9  2  0  0  0
  9 10  1  0  0  0
  9 36  1  0  0  0
 10 11  2  0  0  0
 10 37  1  0  0  0
 11 12  1  0  0  0
 11 23  1  0  0  0
 12 13  2  0  0  0
 12 14  1  0  0  0
 14 15  1  0  0  0
 14 38  1  0  0  0
 14 39  1  0  0  0
 15 22  1  0  0  0
 15 16  1  0  0  0
 15 55  1  0  0  0
 16 17  1  0  0  0
 16 40  1  0  0  0
 16 41  1  0  0  0
 17 18  1  0  0  0
 17 42  1  0  0  0
 17 43  1  0  0  0
 18 21  1  0  0  0
 18 19  1  0  0  0
 18 22  1  0  0  0
 19 20  1  0  0  0
 19 44  1  0  0  0
 19 45  1  0  0  0
 20 21  1  0  0  0
 21 46  1  0  0  0
 21 47  1  0  0  0
 22 48  1  0  0  0
 22 49  1  0  0  0
 23 50  1  0  0  0
 24 29  1  0  0  0
 24 25  2  0  0  0
 25 26  1  0  0  0
 25 51  1  0  0  0
 26 27  2  0  0  0
 26 52  1  0  0  0
 27 28  1  0  0  0
 27 31  1  0  0  0
 28 29  2  0  0  0
 28 53  1  0  0  0
 29 30  1  0  0  0
 31 54  1  0  0  0
M  CHG  1  15   1
M  END
> <s_m_source_file>
/home/yujie/leadopt/data/result/selection/PSK13/lig_35.sdf

> <i_m_source_file_index>
1

> <i_lp_mmshare_version>
51139

> <i_f3d_flags>
0

> <s_epik_input>
RmMxW2NIXWMoW09IXSlbY0hdW2NIXWMxLWMobzIpYyhDKD1PKVtOSF1bQ0gzXSljKGMyMyljKGMoW09IXSlbY0hdW2NIXTMpW0NIMl1OKFtDSDJdNClbQ0gyXVtDSDJdQzQ1W0NIMl1PW0NIMl01

> <s_epik_cmdline>
J2VwaWtfcHl0aG9uJywgJy1waHQnLCAnMi4wJywgJy1waCcsICc3LjAnLCAnLXRuJywgJzgnLCAnLW1hJywgJzIwMCcsICctaW1hZScsICc8aW5maWxlLm1hZT4nLCAnLW9tYWUnLCAnPG91dGZpbGUubWFlPic=

> <r_lp_tautomer_probability>
1

> <r_epik_Ionization_Penalty>
  0.4605

> <r_epik_Ionization_Penalty_Charging>
  0.0574

> <r_epik_Ionization_Penalty_Neutral>
  0.4031

> <r_epik_State_Penalty>
  0.4234

> <r_epik_Charging_Adjusted_Penalty>
0.480812

> <i_epik_Tot_Q>
1

> <i_epik_Tot_abs_Q>
1

> <s_lp_Force_Field>
OPLS3e

> <r_lp_Energy>
27.1755

> <b_lp_Chiralities_Consistent>
1

> <s_lp_Variant>
/home/yujie/leadopt/data/result/selection/PSK13/lig_35.sdf:1-1

> <s_i_glide_gridfile>
glide-grid_PSK13

> <i_i_glide_lignum>
1

> <i_i_glide_rotatable_bonds>
7

> <r_i_docking_score>
-9.43693466850641

> <r_i_glide_ligand_efficiency>
-0.304417247371175

> <r_i_glide_ligand_efficiency_sa>
-0.956290450051423

> <r_i_glide_ligand_efficiency_ln>
-2.1283179750633

> <r_i_glide_gscore>
-9.86033466850641

> <r_i_glide_lipo>
-4.28091735440203

> <r_i_glide_hbond>
-0.168885412654027

> <r_i_glide_metal>
-0

> <r_i_glide_rewards>
-1.23197442773202

> <r_i_glide_evdw>
-51.5391120910645

> <r_i_glide_ecoul>
-13.5752000808716

> <r_i_glide_erotb>
0.434678142965624

> <r_i_glide_esite>
0

> <r_i_glide_emodel>
-105.349639159531

> <r_i_glide_energy>
-65.114312171936

> <r_i_glide_einternal>
5.91412830352783

> <i_i_glide_confnum>
183

> <i_i_glide_posenum>
141

> <r_i_glide_eff_state_penalty>
0.4234

$$$$
