/home/yujie/leadopt/data/result/selection/PSK13/lig_36.sdf:1
                    3D
 Schrodinger Suite 2020-3.
 54 58  0  0  1  0            999 V2000
    6.7550   25.3372    3.8028 C   0  0  0  0  0  0
    5.7346   25.3030    4.8384 N   0  0  0  0  0  0
    5.7044   26.1391    5.8856 C   0  0  0  0  0  0
    6.5022   27.0593    6.0514 O   0  0  0  0  0  0
    4.6710   25.8307    6.8363 C   0  0  0  0  0  0
    4.4452   24.5402    7.3670 C   0  0  0  0  0  0
    3.3830   24.5394    8.2159 O   0  0  0  0  0  0
    2.9353   25.8134    8.2942 C   0  0  0  0  0  0
    1.8483   26.2141    9.0702 C   0  0  0  0  0  0
    1.5547   27.5735    9.0700 C   0  0  0  0  0  0
    2.3145   28.4860    8.3460 C   0  0  0  0  0  0
    3.3936   28.0786    7.5375 C   0  0  0  0  0  0
    3.7200   26.6953    7.5107 C   0  0  0  0  0  0
    4.1253   29.1278    6.7114 C   0  0  0  0  0  0
    5.3751   29.5798    7.3194 N   0  0  2  0  0  0
    6.1371   30.3455    6.3548 C   0  0  0  0  0  0
    7.2429   31.0559    7.1211 C   0  0  0  0  0  0
    6.7022   31.0867    8.5573 C   0  0  0  0  0  0
    6.8993   32.4114    9.3080 C   0  0  0  0  0  0
    8.0625   31.8305   10.0383 O   0  0  0  0  0  0
    7.6343   30.4682    9.6056 C   0  0  0  0  0  0
    5.2842   30.4898    8.4538 C   0  0  0  0  0  0
    1.9817   29.8118    8.4389 O   0  0  0  0  0  0
    5.0978   23.1971    7.2006 C   0  0  0  0  0  0
    6.4949   23.0616    7.1156 C   0  0  0  0  0  0
    7.0768   21.8098    6.9290 C   0  0  0  0  0  0
    6.2818   20.6720    6.8747 C   0  0  0  0  0  0
    4.9007   20.7833    6.9872 C   0  0  0  0  0  0
    4.3090   22.0340    7.1465 C   0  0  0  0  0  0
    2.9617   22.0921    7.2435 F   0  0  0  0  0  0
    6.8619   19.4424    6.7584 O   0  0  0  0  0  0
    7.3134   24.1297    7.2418 F   0  0  0  0  0  0
    6.6122   24.5101    3.1084 H   0  0  0  0  0  0
    6.7085   26.2688    3.2416 H   0  0  0  0  0  0
    7.7518   25.2493    4.2417 H   0  0  0  0  0  0
    4.9982   24.6210    4.7456 H   0  0  0  0  0  0
    1.2753   25.4955    9.6389 H   0  0  0  0  0  0
    0.7156   27.9348    9.6422 H   0  0  0  0  0  0
    4.3486   28.6769    5.7449 H   0  0  0  0  0  0
    3.4802   29.9798    6.4877 H   0  0  0  0  0  0
    6.5341   29.6291    5.6446 H   0  0  0  0  0  0
    5.5205   31.0326    5.7704 H   0  0  0  0  0  0
    8.1817   30.5091    7.0360 H   0  0  0  0  0  0
    7.3976   32.0552    6.7111 H   0  0  0  0  0  0
    7.2222   33.2723    8.7202 H   0  0  0  0  0  0
    6.1339   32.6558   10.0431 H   0  0  0  0  0  0
    7.1285   29.9882   10.4404 H   0  0  0  0  0  0
    8.4841   29.8932    9.2355 H   0  0  0  0  0  0
    4.5291   31.2535    8.2643 H   0  0  0  0  0  0
    4.9489   29.9691    9.3520 H   0  0  0  0  0  0
    1.4171   30.0512    9.1985 H   0  0  0  0  0  0
    8.1506   21.7208    6.8656 H   0  0  0  0  0  0
    4.2786   19.9012    6.9598 H   0  0  0  0  0  0
    6.2156   18.7330    6.8414 H   0  0  0  0  0  0
  1  2  1  0  0  0
  1 33  1  0  0  0
  1 34  1  0  0  0
  1 35  1  0  0  0
  2  3  1  0  0  0
  2 36  1  0  0  0
  3  4  2  0  0  0
  3  5  1  0  0  0
  5 13  1  0  0  0
  5  6  2  0  0  0
  6  7  1  0  0  0
  6 24  1  0  0  0
  7  8  1  0  0  0
  8 13  1  0  0  0
  8  9  2  0  0  0
  9 10  1  0  0  0
  9 37  1  0  0  0
 10 11  2  0  0  0
 10 38  1  0  0  0
 11 12  1  0  0  0
 11 23  1  0  0  0
 12 13  2  0  0  0
 12 14  1  0  0  0
 14 15  1  0  0  0
 14 39  1  0  0  0
 14 40  1  0  0  0
 15 22  1  0  0  0
 15 16  1  0  0  0
 16 17  1  0  0  0
 16 41  1  0  0  0
 16 42  1  0  0  0
 17 18  1  0  0  0
 17 43  1  0  0  0
 17 44  1  0  0  0
 18 21  1  0  0  0
 18 19  1  0  0  0
 18 22  1  0  0  0
 19 20  1  0  0  0
 19 45  1  0  0  0
 19 46  1  0  0  0
 20 21  1  0  0  0
 21 47  1  0  0  0
 21 48  1  0  0  0
 22 49  1  0  0  0
 22 50  1  0  0  0
 23 51  1  0  0  0
 24 29  1  0  0  0
 24 25  2  0  0  0
 25 26  1  0  0  0
 25 32  1  0  0  0
 26 27  2  0  0  0
 26 52  1  0  0  0
 27 28  1  0  0  0
 27 31  1  0  0  0
 28 29  2  0  0  0
 28 53  1  0  0  0
 29 30  1  0  0  0
 31 54  1  0  0  0
M  END
> <s_m_source_file>
/home/yujie/leadopt/data/result/selection/PSK13/lig_36.sdf

> <i_m_source_file_index>
1

> <i_lp_mmshare_version>
51139

> <i_f3d_flags>
0

> <s_epik_input>
RmMxW2NIXWMoW09IXSlbY0hdYyhGKWMxLWMobzIpYyhDKD1PKVtOSF1bQ0gzXSljKGMyMyljKGMoW09IXSlbY0hdW2NIXTMpW0NIMl1OKFtDSDJdNClbQ0gyXVtDSDJdQzQ1W0NIMl1PW0NIMl01

> <s_epik_cmdline>
J2VwaWtfcHl0aG9uJywgJy1waHQnLCAnMi4wJywgJy1waCcsICc3LjAnLCAnLXRuJywgJzgnLCAnLW1hJywgJzIwMCcsICctaW1hZScsICc8aW5maWxlLm1hZT4nLCAnLW9tYWUnLCAnPG91dGZpbGUubWFlPic=

> <r_epik_Ionization_Penalty>
  1.4412

> <r_epik_Ionization_Penalty_Charging>
  0.0000

> <r_epik_Ionization_Penalty_Neutral>
  1.4412

> <r_epik_State_Penalty>
  1.1032

> <r_epik_Charging_Adjusted_Penalty>
1.10324

> <i_epik_Tot_Q>
0

> <i_epik_Tot_abs_Q>
0

> <s_lp_Force_Field>
OPLS3e

> <r_lp_Energy>
23.0385

> <b_lp_Chiralities_Consistent>
1

> <s_lp_Variant>
/home/yujie/leadopt/data/result/selection/PSK13/lig_36.sdf:1-3

> <s_i_glide_gridfile>
glide-grid_PSK13

> <i_i_glide_lignum>
3

> <i_i_glide_rotatable_bonds>
7

> <r_i_docking_score>
-8.11797530156596

> <r_i_glide_ligand_efficiency>
-0.253686728173936

> <r_i_glide_ligand_efficiency_sa>
-0.805405157416913

> <r_i_glide_ligand_efficiency_ln>
-1.81783595766971

> <r_i_glide_gscore>
-9.22121530156596

> <r_i_glide_lipo>
-4.43122933522794

> <r_i_glide_hbond>
-0.329323659802193

> <r_i_glide_metal>
-0

> <r_i_glide_rewards>
-1.12403381753844

> <r_i_glide_evdw>
-47.4612274169922

> <r_i_glide_ecoul>
-9.12396240234375

> <r_i_glide_erotb>
0.405027242203783

> <r_i_glide_esite>
0

> <r_i_glide_emodel>
-86.8586700290915

> <r_i_glide_energy>
-56.5851898193359

> <r_i_glide_einternal>
3.63217258453369

> <i_i_glide_confnum>
110

> <i_i_glide_posenum>
245

> <r_i_glide_eff_state_penalty>
1.10324

$$$$
