/home/yujie/leadopt/data/result/selection/PSK13/lig_29.sdf:1
                    3D
 Schrodinger Suite 2020-3.
 54 58  0  0  1  0            999 V2000
    6.7728   25.8874    4.0996 C   0  0  0  0  0  0
    5.7675   25.6189    5.1193 N   0  0  0  0  0  0
    5.7350   26.2062    6.3216 C   0  0  0  0  0  0
    6.5460   27.0418    6.7159 O   0  0  0  0  0  0
    4.6256   25.8002    7.1275 C   0  0  0  0  0  0
    4.3634   24.4844    7.5598 C   0  0  0  0  0  0
    3.2374   24.4377    8.3284 O   0  0  0  0  0  0
    2.7267   25.6923    8.3642 C   0  0  0  0  0  0
    1.5380   26.0571    8.9979 C   0  0  0  0  0  0
    1.1188   27.3705    8.8157 C   0  0  0  0  0  0
    1.8819   28.2855    8.0912 C   0  0  0  0  0  0
    3.1434   27.9532    7.5629 C   0  0  0  0  0  0
    3.5385   26.5968    7.6405 C   0  0  0  0  0  0
    4.0383   29.0469    6.9759 C   0  0  0  0  0  0
    5.0511   29.5101    8.0401 N   0  3  2  0  0  0
    4.4014   30.1921    9.2578 C   0  0  0  0  0  0
    5.5641   30.8554    9.9868 C   0  0  0  0  0  0
    6.6719   31.0482    8.9315 C   0  0  0  0  0  0
    7.3541   32.4255    8.9478 C   0  0  0  0  0  0
    8.5444   31.8423    9.6368 O   0  0  0  0  0  0
    8.0505   30.4762    9.3145 C   0  0  0  0  0  0
    6.1012   30.5373    7.5955 C   0  0  0  0  0  0
    1.3981   29.4356    7.9112 O   0  5  0  0  0  0
    5.0209   23.1519    7.3484 C   0  0  0  0  0  0
    4.2435   21.9857    7.3992 C   0  0  0  0  0  0
    4.8166   20.7346    7.1740 C   0  0  0  0  0  0
    6.1761   20.6348    6.8875 C   0  0  0  0  0  0
    6.9642   21.7830    6.8413 C   0  0  0  0  0  0
    6.3918   23.0336    7.0841 C   0  0  0  0  0  0
    8.3017   21.6751    6.5728 O   0  0  0  0  0  0
    7.0914   26.9322    4.1061 H   0  0  0  0  0  0
    7.6499   25.2590    4.2599 H   0  0  0  0  0  0
    6.3672   25.6628    3.1129 H   0  0  0  0  0  0
    5.0401   24.9558    4.8949 H   0  0  0  0  0  0
    0.9454   25.3468    9.5538 H   0  0  0  0  0  0
    0.1776   27.6929    9.2371 H   0  0  0  0  0  0
    4.6185   28.7125    6.1172 H   0  0  0  0  0  0
    3.5027   29.9470    6.6677 H   0  0  0  0  0  0
    3.6925   30.9120    8.8419 H   0  0  0  0  0  0
    3.8331   29.4682    9.8418 H   0  0  0  0  0  0
    5.2257   31.8008   10.4144 H   0  0  0  0  0  0
    5.8813   30.2272   10.8208 H   0  0  0  0  0  0
    7.6688   32.8151    7.9790 H   0  0  0  0  0  0
    6.9075   33.1910    9.5830 H   0  0  0  0  0  0
    8.0959   29.8415   10.1947 H   0  0  0  0  0  0
    8.6600   30.0847    8.4976 H   0  0  0  0  0  0
    6.8008   30.0263    6.9317 H   0  0  0  0  0  0
    5.5650   31.2998    7.0253 H   0  0  0  0  0  0
    3.1837   22.0434    7.6018 H   0  0  0  0  0  0
    4.2063   19.8433    7.2107 H   0  0  0  0  0  0
    6.6186   19.6661    6.7083 H   0  0  0  0  0  0
    7.0169   23.9131    7.0587 H   0  0  0  0  0  0
    8.7552   22.5198    6.5613 H   0  0  0  0  0  0
    5.5383   28.6752    8.3451 H   0  0  0  0  0  0
  1  2  1  0  0  0
  1 31  1  0  0  0
  1 32  1  0  0  0
  1 33  1  0  0  0
  2  3  1  0  0  0
  2 34  1  0  0  0
  3  4  2  0  0  0
  3  5  1  0  0  0
  5 13  1  0  0  0
  5  6  2  0  0  0
  6  7  1  0  0  0
  6 24  1  0  0  0
  7  8  1  0  0  0
  8 13  1  0  0  0
  8  9  2  0  0  0
  9 10  1  0  0  0
  9 35  1  0  0  0
 10 11  2  0  0  0
 10 36  1  0  0  0
 11 12  1  0  0  0
 11 23  1  0  0  0
 12 13  2  0  0  0
 12 14  1  0  0  0
 14 15  1  0  0  0
 14 37  1  0  0  0
 14 38  1  0  0  0
 15 22  1  0  0  0
 15 16  1  0  0  0
 15 54  1  0  0  0
 16 17  1  0  0  0
 16 39  1  0  0  0
 16 40  1  0  0  0
 17 18  1  0  0  0
 17 41  1  0  0  0
 17 42  1  0  0  0
 18 21  1  0  0  0
 18 19  1  0  0  0
 18 22  1  0  0  0
 19 20  1  0  0  0
 19 43  1  0  0  0
 19 44  1  0  0  0
 20 21  1  0  0  0
 21 45  1  0  0  0
 21 46  1  0  0  0
 22 47  1  0  0  0
 22 48  1  0  0  0
 24 29  1  0  0  0
 24 25  2  0  0  0
 25 26  1  0  0  0
 25 49  1  0  0  0
 26 27  2  0  0  0
 26 50  1  0  0  0
 27 28  1  0  0  0
 27 51  1  0  0  0
 28 29  2  0  0  0
 28 30  1  0  0  0
 29 52  1  0  0  0
 30 53  1  0  0  0
M  CHG  2  15   1  23  -1
M  END
> <s_m_source_file>
/home/yujie/leadopt/data/result/selection/PSK13/lig_29.sdf

> <i_m_source_file_index>
1

> <i_lp_mmshare_version>
51139

> <i_f3d_flags>
0

> <s_epik_input>
W2NIXTFjKFtPSF0pW2NIXVtjSF1bY0hdYzEtYyhvMiljKEMoPU8pW05IXVtDSDNdKWMoYzIzKWMoYyhbT0hdKVtjSF1bY0hdMylbQ0gyXU4oW0NIMl00KVtDSDJdW0NIMl1DNDVbQ0gyXU9bQ0gyXTU=

> <s_epik_cmdline>
J2VwaWtfcHl0aG9uJywgJy1waHQnLCAnMi4wJywgJy1waCcsICc3LjAnLCAnLXRuJywgJzgnLCAnLW1hJywgJzIwMCcsICctaW1hZScsICc8aW5maWxlLm1hZT4nLCAnLW9tYWUnLCAnPG91dGZpbGUubWFlPic=

> <r_lp_tautomer_probability>
1

> <r_epik_Ionization_Penalty>
  0.4412

> <r_epik_Ionization_Penalty_Charging>
  0.4401

> <r_epik_Ionization_Penalty_Neutral>
  0.0012

> <r_epik_State_Penalty>
  0.4250

> <r_epik_Charging_Adjusted_Penalty>
0.865086

> <i_epik_Tot_Q>
0

> <i_epik_Tot_abs_Q>
2

> <s_lp_Force_Field>
OPLS3e

> <r_lp_Energy>
31.6458

> <b_lp_Chiralities_Consistent>
1

> <s_lp_Variant>
/home/yujie/leadopt/data/result/selection/PSK13/lig_29.sdf:1-1

> <s_i_glide_gridfile>
glide-grid_PSK13

> <i_i_glide_lignum>
1

> <i_i_glide_rotatable_bonds>
6

> <r_i_docking_score>
-7.78124776926354

> <r_i_glide_ligand_efficiency>
-0.259374925642118

> <r_i_glide_ligand_efficiency_sa>
-0.805938199270836

> <r_i_glide_ligand_efficiency_ln>
-1.76798427666175

> <r_i_glide_gscore>
-8.20628276926354

> <r_i_glide_lipo>
-4.21424539879001

> <r_i_glide_hbond>
-0.00370328162643557

> <r_i_glide_metal>
-0

> <r_i_glide_rewards>
-1.2591152893291

> <r_i_glide_evdw>
-49.9871940612793

> <r_i_glide_ecoul>
-4.67835474014282

> <r_i_glide_erotb>
0.471894114567394

> <r_i_glide_esite>
0

> <r_i_glide_emodel>
-77.0209009015359

> <r_i_glide_energy>
-54.6655488014221

> <r_i_glide_einternal>
4.62278413772583

> <i_i_glide_confnum>
65

> <i_i_glide_posenum>
226

> <r_i_glide_eff_state_penalty>
0.425035

$$$$
