/home/yujie/leadopt/data/result/selection/PSK13/lig_20.sdf:1
                    3D
 Schrodinger Suite 2020-3.
 55 59  0  0  1  0            999 V2000
    6.7123   25.4268    3.8110 C   0  0  0  0  0  0
    5.7346   25.3264    4.8871 N   0  0  0  0  0  0
    5.7446   26.0631    6.0048 C   0  0  0  0  0  0
    6.5877   26.9158    6.2770 O   0  0  0  0  0  0
    4.6583   25.7772    6.8921 C   0  0  0  0  0  0
    4.3890   24.5123    7.4491 C   0  0  0  0  0  0
    3.3005   24.5560    8.2691 O   0  0  0  0  0  0
    2.8644   25.8402    8.2789 C   0  0  0  0  0  0
    1.7706   26.3099    9.0110 C   0  0  0  0  0  0
    1.4774   27.6671    8.9010 C   0  0  0  0  0  0
    2.2316   28.5134    8.0883 C   0  0  0  0  0  0
    3.3303   28.0375    7.3480 C   0  0  0  0  0  0
    3.6607   26.6636    7.4499 C   0  0  0  0  0  0
    4.1421   29.0005    6.4997 C   0  0  0  0  0  0
    5.4426   29.3730    7.2090 N   0  3  2  0  0  0
    5.4113   30.3764    8.3624 C   0  0  0  0  0  0
    6.7454   30.9397    7.8296 C   0  0  2  0  0  0
    7.9951   30.4927    8.5589 C   0  0  0  0  0  0
    7.9770   31.4625    9.7388 C   0  0  0  0  0  0
    7.3428   32.6423    9.2348 O   0  0  0  0  0  0
    6.9467   32.4455    7.8840 C   0  0  0  0  0  0
    6.4230   30.2851    6.4831 C   0  0  0  0  0  0
    1.8816   29.8385    8.0417 O   0  0  0  0  0  0
    5.0506   23.1700    7.3588 C   0  0  0  0  0  0
    6.4383   23.0698    7.1923 C   0  0  0  0  0  0
    7.0498   21.8214    7.1187 C   0  0  0  0  0  0
    6.2798   20.6666    7.2390 C   0  0  0  0  0  0
    4.8995   20.7515    7.4022 C   0  0  0  0  0  0
    4.2858   22.0018    7.4626 C   0  0  0  0  0  0
    6.8954   19.4445    7.2403 O   0  0  0  0  0  0
    7.0945   24.4352    3.5643 H   0  0  0  0  0  0
    6.2416   25.8379    2.9182 H   0  0  0  0  0  0
    7.5638   26.0608    4.0693 H   0  0  0  0  0  0
    4.9746   24.6735    4.7619 H   0  0  0  0  0  0
    1.1908   25.6482    9.6385 H   0  0  0  0  0  0
    0.6449   28.0769    9.4578 H   0  0  0  0  0  0
    4.4889   28.5456    5.5724 H   0  0  0  0  0  0
    3.6333   29.9337    6.2576 H   0  0  0  0  0  0
    4.5398   31.0288    8.2576 H   0  0  0  0  0  0
    5.4457   29.8389    9.3104 H   0  0  0  0  0  0
    7.9829   29.4438    8.8571 H   0  0  0  0  0  0
    8.8871   30.6407    7.9431 H   0  0  0  0  0  0
    7.3345   31.0429   10.5126 H   0  0  0  0  0  0
    8.9880   31.6543   10.1038 H   0  0  0  0  0  0
    7.7300   32.7767    7.2031 H   0  0  0  0  0  0
    6.0812   33.0395    7.6434 H   0  0  0  0  0  0
    7.1985   29.6585    6.0457 H   0  0  0  0  0  0
    5.8575   30.8997    5.7766 H   0  0  0  0  0  0
    1.3620   30.1289    8.8089 H   0  0  0  0  0  0
    7.0542   23.9536    7.1281 H   0  0  0  0  0  0
    8.1217   21.7585    6.9959 H   0  0  0  0  0  0
    4.3132   19.8489    7.4932 H   0  0  0  0  0  0
    3.2136   22.0559    7.5926 H   0  0  0  0  0  0
    7.8528   19.5077    7.2709 H   0  0  0  0  0  0
    5.9099   28.5162    7.4873 H   0  0  0  0  0  0
  1  2  1  0  0  0
  1 31  1  0  0  0
  1 32  1  0  0  0
  1 33  1  0  0  0
  2  3  1  0  0  0
  2 34  1  0  0  0
  3  4  2  0  0  0
  3  5  1  0  0  0
  5 13  1  0  0  0
  5  6  2  0  0  0
  6  7  1  0  0  0
  6 24  1  0  0  0
  7  8  1  0  0  0
  8 13  1  0  0  0
  8  9  2  0  0  0
  9 10  1  0  0  0
  9 35  1  0  0  0
 10 11  2  0  0  0
 10 36  1  0  0  0
 11 12  1  0  0  0
 11 23  1  0  0  0
 12 13  2  0  0  0
 12 14  1  0  0  0
 14 15  1  0  0  0
 14 37  1  0  0  0
 14 38  1  0  0  0
 15 22  1  0  0  0
 15 16  1  0  0  0
 15 55  1  0  0  0
 16 17  1  0  0  0
 16 39  1  0  0  0
 16 40  1  0  0  0
 17 21  1  0  0  0
 17 18  1  0  0  0
 17 22  1  0  0  0
 18 19  1  0  0  0
 18 41  1  0  0  0
 18 42  1  0  0  0
 19 20  1  0  0  0
 19 43  1  0  0  0
 19 44  1  0  0  0
 20 21  1  0  0  0
 21 45  1  0  0  0
 21 46  1  0  0  0
 22 47  1  0  0  0
 22 48  1  0  0  0
 23 49  1  0  0  0
 24 29  1  0  0  0
 24 25  2  0  0  0
 25 26  1  0  0  0
 25 50  1  0  0  0
 26 27  2  0  0  0
 26 51  1  0  0  0
 27 28  1  0  0  0
 27 30  1  0  0  0
 28 29  2  0  0  0
 28 52  1  0  0  0
 29 53  1  0  0  0
 30 54  1  0  0  0
M  CHG  1  15   1
M  END
> <s_m_source_file>
/home/yujie/leadopt/data/result/selection/PSK13/lig_20.sdf

> <i_m_source_file_index>
1

> <i_lp_mmshare_version>
51139

> <i_f3d_flags>
0

> <s_epik_input>
W2NIXTFbY0hdYyhbT0hdKVtjSF1bY0hdYzEtYyhvMiljKEMoPU8pW05IXVtDSDNdKWMoYzIzKWMoYyhbT0hdKVtjSF1bY0hdMylbQ0gyXU4oW0NIMl00KVtDSDJdQzQ1W0NIMl1bQ0gyXU9bQ0gyXTU=

> <s_epik_cmdline>
J2VwaWtfcHl0aG9uJywgJy1waHQnLCAnMi4wJywgJy1waCcsICc3LjAnLCAnLXRuJywgJzgnLCAnLW1hJywgJzIwMCcsICctaW1hZScsICc8aW5maWxlLm1hZT4nLCAnLW9tYWUnLCAnPG91dGZpbGUubWFlPic=

> <r_lp_tautomer_probability>
1

> <r_epik_Ionization_Penalty>
  0.4668

> <r_epik_Ionization_Penalty_Charging>
  0.0817

> <r_epik_Ionization_Penalty_Neutral>
  0.3851

> <r_epik_State_Penalty>
  0.4215

> <r_epik_Charging_Adjusted_Penalty>
0.503162

> <i_epik_Tot_Q>
1

> <i_epik_Tot_abs_Q>
1

> <s_lp_Force_Field>
OPLS3e

> <r_lp_Energy>
30.455

> <b_lp_Chiralities_Consistent>
1

> <s_lp_Variant>
/home/yujie/leadopt/data/result/selection/PSK13/lig_20.sdf:1-1

> <s_i_glide_gridfile>
glide-grid_PSK13

> <i_i_glide_lignum>
1

> <i_i_glide_rotatable_bonds>
7

> <r_i_docking_score>
-9.0901840076998

> <r_i_glide_ligand_efficiency>
-0.303006133589993

> <r_i_glide_ligand_efficiency_sa>
-0.941510506726804

> <r_i_glide_ligand_efficiency_ln>
-2.06538885203708

> <r_i_glide_gscore>
-9.5116790076998

> <r_i_glide_lipo>
-4.50803242569334

> <r_i_glide_hbond>
-0.16

> <r_i_glide_metal>
-0

> <r_i_glide_rewards>
-1.717255268512

> <r_i_glide_evdw>
-46.7032623291016

> <r_i_glide_ecoul>
-8.40686225891113

> <r_i_glide_erotb>
0.469801141797288

> <r_i_glide_esite>
0

> <r_i_glide_emodel>
-94.5702698638106

> <r_i_glide_energy>
-55.1101245880127

> <r_i_glide_einternal>
4.08743333816528

> <i_i_glide_confnum>
188

> <i_i_glide_posenum>
222

> <r_i_glide_eff_state_penalty>
0.421495

$$$$
