/home/yujie/leadopt/data/result/selection/PSK13/lig_18.sdf:1
                    3D
 Schrodinger Suite 2020-3.
 51 55  0  0  1  0            999 V2000
    6.7412   25.6623    3.9238 C   0  0  0  0  0  0
    5.7307   25.5557    4.9683 N   0  0  0  0  0  0
    5.7420   26.2435    6.1178 C   0  0  0  0  0  0
    6.6177   27.0419    6.4395 O   0  0  0  0  0  0
    4.6265   25.9559    6.9722 C   0  0  0  0  0  0
    4.3049   24.6760    7.4716 C   0  0  0  0  0  0
    3.2114   24.7231    8.2827 O   0  0  0  0  0  0
    2.7909   26.0103    8.3044 C   0  0  0  0  0  0
    1.6779   26.4606    9.0150 C   0  0  0  0  0  0
    1.3666   27.8090    8.8876 C   0  0  0  0  0  0
    2.1409   28.6686    8.1112 C   0  0  0  0  0  0
    3.2989   28.2288    7.4399 C   0  0  0  0  0  0
    3.6212   26.8471    7.5178 C   0  0  0  0  0  0
    4.1620   29.2507    6.7004 C   0  0  0  0  0  0
    5.3351   29.5925    7.4908 N   0  0  0  0  0  0
    6.2813   30.6046    7.0331 C   0  0  0  0  0  0
    6.5824   30.9389    8.4863 C   0  0  0  0  0  0
    7.8711   30.4513    9.1505 C   0  0  0  0  0  0
    8.2070   31.8422    9.5661 O   0  0  0  0  0  0
    6.9341   32.3452    8.9697 C   0  0  0  0  0  0
    5.2362   30.2847    8.7752 C   0  0  0  0  0  0
    1.7349   29.9738    8.0444 O   0  0  0  0  0  0
    4.8838   23.3024    7.3179 C   0  0  0  0  0  0
    4.0251   22.1972    7.3618 C   0  0  0  0  0  0
    4.5270   20.9065    7.2245 C   0  0  0  0  0  0
    5.8925   20.7169    7.0382 C   0  0  0  0  0  0
    6.7572   21.8062    6.9876 C   0  0  0  0  0  0
    6.2563   23.0979    7.1396 C   0  0  0  0  0  0
    6.3873   19.4486    6.9100 O   0  0  0  0  0  0
    6.2830   25.4898    2.9508 H   0  0  0  0  0  0
    7.5170   24.9135    4.0743 H   0  0  0  0  0  0
    7.2110   26.6452    3.9027 H   0  0  0  0  0  0
    4.9734   24.9080    4.8134 H   0  0  0  0  0  0
    1.0853   25.7920    9.6227 H   0  0  0  0  0  0
    0.5072   28.2037    9.4097 H   0  0  0  0  0  0
    4.4859   28.8340    5.7455 H   0  0  0  0  0  0
    3.6022   30.1568    6.4650 H   0  0  0  0  0  0
    7.0990   30.1927    6.4417 H   0  0  0  0  0  0
    5.8169   31.4315    6.4892 H   0  0  0  0  0  0
    7.7443   29.8426   10.0418 H   0  0  0  0  0  0
    8.6456   30.0770    8.4795 H   0  0  0  0  0  0
    7.1599   33.0760    8.1921 H   0  0  0  0  0  0
    6.3075   32.7373    9.7713 H   0  0  0  0  0  0
    4.4099   30.9993    8.8315 H   0  0  0  0  0  0
    5.1810   29.6103    9.6315 H   0  0  0  0  0  0
    1.3175   30.2426    8.8850 H   0  0  0  0  0  0
    2.9625   22.3353    7.4990 H   0  0  0  0  0  0
    3.8552   20.0605    7.2608 H   0  0  0  0  0  0
    7.8155   21.6479    6.8466 H   0  0  0  0  0  0
    6.9394   23.9338    7.1162 H   0  0  0  0  0  0
    5.6780   18.7977    6.8395 H   0  0  0  0  0  0
  1  2  1  0  0  0
  1 30  1  0  0  0
  1 31  1  0  0  0
  1 32  1  0  0  0
  2  3  1  0  0  0
  2 33  1  0  0  0
  3  4  2  0  0  0
  3  5  1  0  0  0
  5 13  1  0  0  0
  5  6  2  0  0  0
  6  7  1  0  0  0
  6 23  1  0  0  0
  7  8  1  0  0  0
  8 13  1  0  0  0
  8  9  2  0  0  0
  9 10  1  0  0  0
  9 34  1  0  0  0
 10 11  2  0  0  0
 10 35  1  0  0  0
 11 12  1  0  0  0
 11 22  1  0  0  0
 12 13  2  0  0  0
 12 14  1  0  0  0
 14 15  1  0  0  0
 14 36  1  0  0  0
 14 37  1  0  0  0
 15 21  1  0  0  0
 15 16  1  0  0  0
 16 17  1  0  0  0
 16 38  1  0  0  0
 16 39  1  0  0  0
 17 20  1  0  0  0
 17 18  1  0  0  0
 17 21  1  0  0  0
 18 19  1  0  0  0
 18 40  1  0  0  0
 18 41  1  0  0  0
 19 20  1  0  0  0
 20 42  1  0  0  0
 20 43  1  0  0  0
 21 44  1  0  0  0
 21 45  1  0  0  0
 22 46  1  0  0  0
 23 28  1  0  0  0
 23 24  2  0  0  0
 24 25  1  0  0  0
 24 47  1  0  0  0
 25 26  2  0  0  0
 25 48  1  0  0  0
 26 27  1  0  0  0
 26 29  1  0  0  0
 27 28  2  0  0  0
 27 49  1  0  0  0
 28 50  1  0  0  0
 29 51  1  0  0  0
M  END
> <s_m_source_file>
/home/yujie/leadopt/data/result/selection/PSK13/lig_18.sdf

> <i_m_source_file_index>
1

> <i_lp_mmshare_version>
51139

> <i_f3d_flags>
0

> <s_epik_input>
W2NIXTFbY0hdYyhbT0hdKVtjSF1bY0hdYzEtYyhvMiljKEMoPU8pW05IXVtDSDNdKWMoYzIzKWMoYyhbT0hdKVtjSF1bY0hdMylbQ0gyXU4oW0NIMl00KVtDSDJdQzQ1W0NIMl1PW0NIMl01

> <s_epik_cmdline>
J2VwaWtfcHl0aG9uJywgJy1waHQnLCAnMi4wJywgJy1waCcsICc3LjAnLCAnLXRuJywgJzgnLCAnLW1hJywgJzIwMCcsICctaW1hZScsICc8aW5maWxlLm1hZT4nLCAnLW9tYWUnLCAnPG91dGZpbGUubWFlPic=

> <r_epik_Ionization_Penalty>
  0.8303

> <r_epik_Ionization_Penalty_Charging>
  0.0000

> <r_epik_Ionization_Penalty_Neutral>
  0.8303

> <r_epik_State_Penalty>
  1.1803

> <r_epik_Charging_Adjusted_Penalty>
1.18031

> <i_epik_Tot_Q>
0

> <i_epik_Tot_abs_Q>
0

> <s_lp_Force_Field>
OPLS3e

> <r_lp_Energy>
18.8135

> <b_lp_Chiralities_Consistent>
1

> <s_lp_Variant>
/home/yujie/leadopt/data/result/selection/PSK13/lig_18.sdf:1-3

> <s_i_glide_gridfile>
glide-grid_PSK13

> <i_i_glide_lignum>
3

> <i_i_glide_rotatable_bonds>
7

> <r_i_docking_score>
-8.08561020308191

> <r_i_glide_ligand_efficiency>
-0.278814144933859

> <r_i_glide_ligand_efficiency_sa>
-0.856605387758027

> <r_i_glide_ligand_efficiency_ln>
-1.85139970312177

> <r_i_glide_gscore>
-9.26592020308192

> <r_i_glide_lipo>
-4.45933825612132

> <r_i_glide_hbond>
-0.456

> <r_i_glide_metal>
-0

> <r_i_glide_rewards>
-1.06705611200396

> <r_i_glide_evdw>
-49.6094818115234

> <r_i_glide_ecoul>
-8.70394134521484

> <r_i_glide_erotb>
0.502539457401761

> <r_i_glide_esite>
0

> <r_i_glide_emodel>
-90.6425150486117

> <r_i_glide_energy>
-58.3134231567383

> <r_i_glide_einternal>
2.71773600578308

> <i_i_glide_confnum>
33

> <i_i_glide_posenum>
290

> <r_i_glide_eff_state_penalty>
1.18031

$$$$
