/home/yujie/leadopt/data/result/selection/PSK13/lig_19.sdf:1
                    3D
 Schrodinger Suite 2020-3.
 54 58  0  0  1  0            999 V2000
    6.7536   25.6377    4.0678 C   0  0  0  0  0  0
    5.7217   25.5198    5.0904 N   0  0  0  0  0  0
    5.7958   26.0403    6.3205 C   0  0  0  0  0  0
    6.7483   26.6839    6.7525 O   0  0  0  0  0  0
    4.6568   25.7577    7.1391 C   0  0  0  0  0  0
    4.3057   24.4838    7.6061 C   0  0  0  0  0  0
    3.1820   24.5228    8.3786 O   0  0  0  0  0  0
    2.7731   25.8169    8.4046 C   0  0  0  0  0  0
    1.6424   26.2949    9.0692 C   0  0  0  0  0  0
    1.3731   27.6552    8.9292 C   0  0  0  0  0  0
    2.1902   28.4924    8.1679 C   0  0  0  0  0  0
    3.3451   28.0143    7.5257 C   0  0  0  0  0  0
    3.6361   26.6388    7.6407 C   0  0  0  0  0  0
    4.2144   28.9475    6.6971 C   0  0  0  0  0  0
    5.5795   29.2365    7.3445 N   0  3  1  0  0  0
    6.5337   29.8432    6.3203 C   0  0  0  0  0  0
    7.6215   30.5011    7.1425 C   0  0  0  0  0  0
    7.0032   30.8526    8.4968 C   0  0  2  0  0  0
    7.0809   32.3351    8.8863 C   0  0  0  0  0  0
    8.2367   31.9507    9.8029 C   0  0  0  0  0  0
    7.8951   30.5162    9.6404 O   0  0  0  0  0  0
    5.5914   30.2270    8.5252 C   0  0  0  0  0  0
    1.8503   29.7016    8.0415 O   0  5  0  0  0  0
    4.9069   23.1342    7.4102 C   0  0  0  0  0  0
    4.0793   22.0099    7.3383 C   0  0  0  0  0  0
    4.6267   20.7629    7.0560 C   0  0  0  0  0  0
    5.9976   20.6512    6.8426 C   0  0  0  0  0  0
    6.8334   21.7548    6.9458 C   0  0  0  0  0  0
    6.2889   22.9951    7.2466 C   0  0  0  0  0  0
    6.5338   19.4430    6.5224 O   0  0  0  0  0  0
    7.0084   24.6516    3.6789 H   0  0  0  0  0  0
    6.3824   26.2425    3.2419 H   0  0  0  0  0  0
    7.6694   26.1007    4.4412 H   0  0  0  0  0  0
    4.8688   25.0425    4.8388 H   0  0  0  0  0  0
    1.0034   25.6393    9.6416 H   0  0  0  0  0  0
    0.5075   28.0846    9.4133 H   0  0  0  0  0  0
    4.4552   28.4828    5.7389 H   0  0  0  0  0  0
    3.7682   29.9207    6.4806 H   0  0  0  0  0  0
    6.8689   29.0414    5.6591 H   0  0  0  0  0  0
    5.9426   30.5691    5.7564 H   0  0  0  0  0  0
    8.4701   29.8306    7.2850 H   0  0  0  0  0  0
    8.0255   31.3761    6.6319 H   0  0  0  0  0  0
    7.3340   33.0210    8.0787 H   0  0  0  0  0  0
    6.2010   32.6947    9.4180 H   0  0  0  0  0  0
    9.2422   32.1129    9.4220 H   0  0  0  0  0  0
    8.1391   32.2420   10.8406 H   0  0  0  0  0  0
    4.8046   30.9583    8.3280 H   0  0  0  0  0  0
    5.3479   29.6721    9.4319 H   0  0  0  0  0  0
    3.0107   22.1043    7.4700 H   0  0  0  0  0  0
    3.9852   19.8966    6.9820 H   0  0  0  0  0  0
    7.8974   21.6501    6.7912 H   0  0  0  0  0  0
    6.9501   23.8446    7.3273 H   0  0  0  0  0  0
    5.8407   18.7766    6.4414 H   0  0  0  0  0  0
    5.9750   28.3515    7.6522 H   0  0  0  0  0  0
  1  2  1  0  0  0
  1 31  1  0  0  0
  1 32  1  0  0  0
  1 33  1  0  0  0
  2  3  1  0  0  0
  2 34  1  0  0  0
  3  4  2  0  0  0
  3  5  1  0  0  0
  5 13  1  0  0  0
  5  6  2  0  0  0
  6  7  1  0  0  0
  6 24  1  0  0  0
  7  8  1  0  0  0
  8 13  1  0  0  0
  8  9  2  0  0  0
  9 10  1  0  0  0
  9 35  1  0  0  0
 10 11  2  0  0  0
 10 36  1  0  0  0
 11 12  1  0  0  0
 11 23  1  0  0  0
 12 13  2  0  0  0
 12 14  1  0  0  0
 14 15  1  0  0  0
 14 37  1  0  0  0
 14 38  1  0  0  0
 15 22  1  0  0  0
 15 16  1  0  0  0
 15 54  1  0  0  0
 16 17  1  0  0  0
 16 39  1  0  0  0
 16 40  1  0  0  0
 17 18  1  0  0  0
 17 41  1  0  0  0
 17 42  1  0  0  0
 18 21  1  0  0  0
 18 19  1  0  0  0
 18 22  1  0  0  0
 19 20  1  0  0  0
 19 43  1  0  0  0
 19 44  1  0  0  0
 20 21  1  0  0  0
 20 45  1  0  0  0
 20 46  1  0  0  0
 22 47  1  0  0  0
 22 48  1  0  0  0
 24 29  1  0  0  0
 24 25  2  0  0  0
 25 26  1  0  0  0
 25 49  1  0  0  0
 26 27  2  0  0  0
 26 50  1  0  0  0
 27 28  1  0  0  0
 27 30  1  0  0  0
 28 29  2  0  0  0
 28 51  1  0  0  0
 29 52  1  0  0  0
 30 53  1  0  0  0
M  CHG  2  15   1  23  -1
M  END
> <s_m_source_file>
/home/yujie/leadopt/data/result/selection/PSK13/lig_19.sdf

> <i_m_source_file_index>
1

> <i_lp_mmshare_version>
51139

> <i_f3d_flags>
0

> <s_epik_input>
W2NIXTFbY0hdYyhbT0hdKVtjSF1bY0hdYzEtYyhvMiljKEMoPU8pW05IXVtDSDNdKWMoYzIzKWMoYyhbT0hdKVtjSF1bY0hdMylbQ0gyXU4oW0NIMl00KVtDSDJdW0NIMl1bQ0BAXTQ1W0NIMl1bQ0gyXU81

> <s_epik_cmdline>
J2VwaWtfcHl0aG9uJywgJy1waHQnLCAnMi4wJywgJy1waCcsICc3LjAnLCAnLXRuJywgJzgnLCAnLW1hJywgJzIwMCcsICctaW1hZScsICc8aW5maWxlLm1hZT4nLCAnLW9tYWUnLCAnPG91dGZpbGUubWFlPic=

> <r_lp_tautomer_probability>
1

> <r_epik_Ionization_Penalty>
  0.4290

> <r_epik_Ionization_Penalty_Charging>
  0.4280

> <r_epik_Ionization_Penalty_Neutral>
  0.0010

> <r_epik_State_Penalty>
  0.4255

> <r_epik_Charging_Adjusted_Penalty>
0.853476

> <i_epik_Tot_Q>
0

> <i_epik_Tot_abs_Q>
2

> <s_lp_Force_Field>
OPLS3e

> <r_lp_Energy>
16.138

> <b_lp_Chiralities_Consistent>
1

> <s_lp_Variant>
/home/yujie/leadopt/data/result/selection/PSK13/lig_19.sdf:1-2

> <s_i_glide_gridfile>
glide-grid_PSK13

> <i_i_glide_lignum>
2

> <i_i_glide_rotatable_bonds>
6

> <r_i_docking_score>
-8.08177445515639

> <r_i_glide_ligand_efficiency>
-0.269392481838546

> <r_i_glide_ligand_efficiency_sa>
-0.837065075479308

> <r_i_glide_ligand_efficiency_ln>
-1.83626721419711

> <r_i_glide_gscore>
-8.50727945515639

> <r_i_glide_lipo>
-4.37007532366103

> <r_i_glide_hbond>
-0.353131491449449

> <r_i_glide_metal>
-0

> <r_i_glide_rewards>
-1.71194973772564

> <r_i_glide_evdw>
-43.0483551025391

> <r_i_glide_ecoul>
-2.61066174507141

> <r_i_glide_erotb>
0.471894114567394

> <r_i_glide_esite>
0

> <r_i_glide_emodel>
-68.7151438170623

> <r_i_glide_energy>
-45.6590168476105

> <r_i_glide_einternal>
2.3041524887085

> <i_i_glide_confnum>
2

> <i_i_glide_posenum>
49

> <r_i_glide_eff_state_penalty>
0.425505

$$$$
