/home/yujie/leadopt/data/result/selection/PSK13/lig_24.sdf:1
                    3D
 Schrodinger Suite 2020-3.
 59 64  0  0  1  0            999 V2000
    6.9145   19.5987    6.9599 O   0  0  0  0  0  0
    6.2931   20.8031    7.1455 C   0  0  0  0  0  0
    7.0609   21.9598    7.2419 C   0  0  0  0  0  0
    6.4389   23.1769    7.4976 C   0  0  0  0  0  0
    5.0432   23.2652    7.5561 C   0  0  0  0  0  0
    4.2815   22.0926    7.4530 C   0  0  0  0  0  0
    4.9066   20.8616    7.2587 C   0  0  0  0  0  0
    4.3530   24.5978    7.6611 C   0  0  0  0  0  0
    3.1654   24.5557    8.3274 O   0  0  0  0  0  0
    2.6578   25.8121    8.3216 C   0  0  0  0  0  0
    1.4465   26.1788    8.9095 C   0  0  0  0  0  0
    1.0643   27.5086    8.7895 C   0  0  0  0  0  0
    1.8571   28.4347    8.1168 C   0  0  0  0  0  0
    3.1051   28.0791    7.5640 C   0  0  0  0  0  0
    3.5083   26.7152    7.6417 C   0  0  0  0  0  0
    4.6365   25.9070    7.2043 C   0  0  0  0  0  0
    5.8467   26.3155    6.5232 C   0  0  0  0  0  0
    6.4099   27.3653    6.8195 O   0  0  0  0  0  0
    6.3035   25.5290    5.5276 N   0  0  0  0  0  0
    7.1751   25.9465    4.3991 C   0  0  0  0  0  0
    6.1081   25.2667    3.5328 C   0  0  0  0  0  0
    5.6110   24.4801    4.7361 C   0  0  0  0  0  0
    3.9913   29.1823    6.9914 C   0  0  0  0  0  0
    5.0503   29.6010    8.0317 N   0  3  2  0  0  0
    4.4573   30.2221    9.3075 C   0  0  0  0  0  0
    5.6434   30.8684   10.0057 C   0  0  0  0  0  0
    6.7101   31.0951    8.9190 C   0  0  0  0  0  0
    7.4077   32.4627    8.9630 C   0  0  0  0  0  0
    8.6008   31.8421    9.6115 O   0  0  0  0  0  0
    8.0926   30.4941    9.2402 C   0  0  0  0  0  0
    6.0836   30.6463    7.5875 C   0  0  0  0  0  0
    1.3926   29.7226    8.0447 O   0  0  0  0  0  0
    7.8691   19.6674    6.9826 H   0  0  0  0  0  0
    8.1370   21.9171    7.1667 H   0  0  0  0  0  0
    7.0521   24.0591    7.6005 H   0  0  0  0  0  0
    3.2020   22.1324    7.5015 H   0  0  0  0  0  0
    4.3198   19.9553    7.1784 H   0  0  0  0  0  0
    0.8343   25.4583    9.4323 H   0  0  0  0  0  0
    0.1317   27.8304    9.2317 H   0  0  0  0  0  0
    7.1430   27.0189    4.1999 H   0  0  0  0  0  0
    8.1522   25.4612    4.4134 H   0  0  0  0  0  0
    6.4977   24.6531    2.7154 H   0  0  0  0  0  0
    5.3391   25.9683    3.2354 H   0  0  0  0  0  0
    6.0533   23.4903    4.8549 H   0  0  0  0  0  0
    4.5334   24.5575    4.8365 H   0  0  0  0  0  0
    4.5312   28.8659    6.0986 H   0  0  0  0  0  0
    3.4503   30.0946    6.7341 H   0  0  0  0  0  0
    3.7326   30.9598    8.9595 H   0  0  0  0  0  0
    3.9261   29.4630    9.8825 H   0  0  0  0  0  0
    5.3215   31.7981   10.4791 H   0  0  0  0  0  0
    5.9942   30.2055   10.7953 H   0  0  0  0  0  0
    7.7178   32.8751    8.0017 H   0  0  0  0  0  0
    6.9743   33.2162    9.6226 H   0  0  0  0  0  0
    8.1552   29.8210   10.0923 H   0  0  0  0  0  0
    8.6805   30.1356    8.3931 H   0  0  0  0  0  0
    6.7552   30.1679    6.8730 H   0  0  0  0  0  0
    5.5268   31.4339    7.0753 H   0  0  0  0  0  0
    0.9971   30.0137    8.8949 H   0  0  0  0  0  0
    5.5580   28.7541    8.2690 H   0  0  0  0  0  0
  1  2  1  0  0  0
  1 33  1  0  0  0
  2  7  1  0  0  0
  2  3  2  0  0  0
  3  4  1  0  0  0
  3 34  1  0  0  0
  4  5  2  0  0  0
  4 35  1  0  0  0
  5  6  1  0  0  0
  5  8  1  0  0  0
  6  7  2  0  0  0
  6 36  1  0  0  0
  7 37  1  0  0  0
  8 16  2  0  0  0
  8  9  1  0  0  0
  9 10  1  0  0  0
 10 15  2  0  0  0
 10 11  1  0  0  0
 11 12  2  0  0  0
 11 38  1  0  0  0
 12 13  1  0  0  0
 12 39  1  0  0  0
 13 14  2  0  0  0
 13 32  1  0  0  0
 14 15  1  0  0  0
 14 23  1  0  0  0
 15 16  1  0  0  0
 16 17  1  0  0  0
 17 18  2  0  0  0
 17 19  1  0  0  0
 19 22  1  0  0  0
 19 20  1  0  0  0
 20 21  1  0  0  0
 20 40  1  0  0  0
 20 41  1  0  0  0
 21 22  1  0  0  0
 21 42  1  0  0  0
 21 43  1  0  0  0
 22 44  1  0  0  0
 22 45  1  0  0  0
 23 24  1  0  0  0
 23 46  1  0  0  0
 23 47  1  0  0  0
 24 31  1  0  0  0
 24 25  1  0  0  0
 24 59  1  0  0  0
 25 26  1  0  0  0
 25 48  1  0  0  0
 25 49  1  0  0  0
 26 27  1  0  0  0
 26 50  1  0  0  0
 26 51  1  0  0  0
 27 30  1  0  0  0
 27 28  1  0  0  0
 27 31  1  0  0  0
 28 29  1  0  0  0
 28 52  1  0  0  0
 28 53  1  0  0  0
 29 30  1  0  0  0
 30 54  1  0  0  0
 30 55  1  0  0  0
 31 56  1  0  0  0
 31 57  1  0  0  0
 32 58  1  0  0  0
M  CHG  1  24   1
M  END
> <s_m_source_file>
/home/yujie/leadopt/data/result/selection/PSK13/lig_24.sdf

> <i_m_source_file_index>
1

> <i_lp_mmshare_version>
51139

> <i_f3d_flags>
0

> <s_epik_input>
W09IXWMxW2NIXVtjSF1jKFtjSF1bY0hdMSktYyhvMiljKEMoPU8pTjNbQ0gyXVtDSDJdW0NIMl0zKWMoYzI0KWMoYyhbT0hdKVtjSF1bY0hdNClbQ0gyXU4oW0NIMl01KVtDSDJdW0NIMl1DNTZbQ0gyXU9bQ0gyXTY=

> <s_epik_cmdline>
J2VwaWtfcHl0aG9uJywgJy1waHQnLCAnMi4wJywgJy1waCcsICc3LjAnLCAnLXRuJywgJzgnLCAnLW1hJywgJzIwMCcsICctaW1hZScsICc8aW5maWxlLm1hZT4nLCAnLW9tYWUnLCAnPG91dGZpbGUubWFlPic=

> <r_lp_tautomer_probability>
1

> <r_epik_Ionization_Penalty>
  0.5671

> <r_epik_Ionization_Penalty_Charging>
  0.0542

> <r_epik_Ionization_Penalty_Neutral>
  0.5129

> <r_epik_State_Penalty>
  0.5391

> <r_epik_Charging_Adjusted_Penalty>
0.593279

> <i_epik_Tot_Q>
1

> <i_epik_Tot_abs_Q>
1

> <s_lp_Force_Field>
OPLS3e

> <r_lp_Energy>
26.0208

> <b_lp_Chiralities_Consistent>
1

> <s_lp_Variant>
/home/yujie/leadopt/data/result/selection/PSK13/lig_24.sdf:1-2

> <s_i_glide_gridfile>
glide-grid_PSK13

> <i_i_glide_lignum>
2

> <i_i_glide_rotatable_bonds>
7

> <r_i_docking_score>
-9.21562435581429

> <r_i_glide_ligand_efficiency>
-0.287988261119197

> <r_i_glide_ligand_efficiency_sa>
-0.914305736253963

> <r_i_glide_ligand_efficiency_ln>
-2.06362950169908

> <r_i_glide_gscore>
-9.75467635581429

> <r_i_glide_lipo>
-4.51524049705906

> <r_i_glide_hbond>
-0.169872728645054

> <r_i_glide_metal>
-0

> <r_i_glide_rewards>
-1.19930703798608

> <r_i_glide_evdw>
-49.2903327941895

> <r_i_glide_ecoul>
-12.873556137085

> <r_i_glide_erotb>
0.525293968148114

> <r_i_glide_esite>
0

> <r_i_glide_emodel>
-101.853155079557

> <r_i_glide_energy>
-62.1638889312744

> <r_i_glide_einternal>
5.25778102874756

> <i_i_glide_confnum>
261

> <i_i_glide_posenum>
340

> <r_i_glide_eff_state_penalty>
0.539052

$$$$
