/home/yujie/leadopt/data/result/selection/PSK13/lig_41.sdf:1
                    3D
 Schrodinger Suite 2020-3.
 49 52  0  0  1  0            999 V2000
    6.7592   25.6406    4.0598 C   0  0  0  0  0  0
    5.7350   25.4603    5.0773 N   0  0  0  0  0  0
    5.6532   26.2038    6.1880 C   0  0  0  0  0  0
    6.4107   27.1364    6.4561 O   0  0  0  0  0  0
    4.5478   25.8613    7.0344 C   0  0  0  0  0  0
    4.2427   24.5601    7.4999 C   0  0  0  0  0  0
    3.1320   24.5741    8.2884 O   0  0  0  0  0  0
    2.7221   25.8580    8.3785 C   0  0  0  0  0  0
    1.6115   26.2723    9.1070 C   0  0  0  0  0  0
    1.3365   27.6314    9.0881 C   0  0  0  0  0  0
    2.1186   28.5288    8.3702 C   0  0  0  0  0  0
    3.2531   28.1163    7.6439 C   0  0  0  0  0  0
    3.5572   26.7276    7.6406 C   0  0  0  0  0  0
    4.0994   29.1751    6.9371 C   0  0  0  0  0  0
    5.2784   29.6909    7.8004 N   0  3  0  0  0  0
    6.1733   30.7125    7.0718 C   0  0  0  0  0  0
    6.8332   31.5442    8.1799 C   0  0  0  0  0  0
    6.0622   31.2634    9.4764 C   0  0  0  0  0  0
    4.8479   30.4252    9.0878 C   0  0  0  0  0  0
    1.7429   29.8419    8.3952 O   0  0  0  0  0  0
    4.8265   23.1836    7.3400 C   0  0  0  0  0  0
    4.0337   22.0440    7.5300 C   0  0  0  0  0  0
    4.6065   20.7798    7.3680 C   0  0  0  0  0  0
    5.9504   20.6806    7.0096 C   0  0  0  0  0  0
    6.6836   21.8554    6.8418 C   0  0  0  0  0  0
    6.1433   23.0948    7.0102 N   0  0  0  0  0  0
    6.5347   19.4556    6.8346 O   0  0  0  0  0  0
    6.6238   24.9207    3.2510 H   0  0  0  0  0  0
    6.7073   26.6441    3.6393 H   0  0  0  0  0  0
    7.7544   25.4955    4.4840 H   0  0  0  0  0  0
    5.0781   24.7060    4.9578 H   0  0  0  0  0  0
    0.9959   25.5686    9.6411 H   0  0  0  0  0  0
    0.4929   28.0077    9.6395 H   0  0  0  0  0  0
    4.5341   28.8057    6.0097 H   0  0  0  0  0  0
    3.5213   30.0646    6.6729 H   0  0  0  0  0  0
    6.8651   30.1563    6.4406 H   0  0  0  0  0  0
    5.5180   31.3265    6.4497 H   0  0  0  0  0  0
    7.8866   31.2805    8.2903 H   0  0  0  0  0  0
    6.7944   32.6069    7.9276 H   0  0  0  0  0  0
    5.7556   32.1950    9.9651 H   0  0  0  0  0  0
    6.6813   30.7142   10.1874 H   0  0  0  0  0  0
    3.9912   31.0437    8.8205 H   0  0  0  0  0  0
    4.5226   29.6963    9.8312 H   0  0  0  0  0  0
    1.2069   30.1041    9.1754 H   0  0  0  0  0  0
    2.9895   22.1270    7.7937 H   0  0  0  0  0  0
    4.0076   19.8928    7.5162 H   0  0  0  0  0  0
    7.7273   21.8171    6.5709 H   0  0  0  0  0  0
    5.8837   18.7473    6.8408 H   0  0  0  0  0  0
    5.8449   28.8884    8.0609 H   0  0  0  0  0  0
  1  2  1  0  0  0
  1 28  1  0  0  0
  1 29  1  0  0  0
  1 30  1  0  0  0
  2  3  1  0  0  0
  2 31  1  0  0  0
  3  4  2  0  0  0
  3  5  1  0  0  0
  5 13  1  0  0  0
  5  6  2  0  0  0
  6  7  1  0  0  0
  6 21  1  0  0  0
  7  8  1  0  0  0
  8 13  1  0  0  0
  8  9  2  0  0  0
  9 10  1  0  0  0
  9 32  1  0  0  0
 10 11  2  0  0  0
 10 33  1  0  0  0
 11 12  1  0  0  0
 11 20  1  0  0  0
 12 13  2  0  0  0
 12 14  1  0  0  0
 14 15  1  0  0  0
 14 34  1  0  0  0
 14 35  1  0  0  0
 15 19  1  0  0  0
 15 16  1  0  0  0
 15 49  1  0  0  0
 16 17  1  0  0  0
 16 36  1  0  0  0
 16 37  1  0  0  0
 17 18  1  0  0  0
 17 38  1  0  0  0
 17 39  1  0  0  0
 18 19  1  0  0  0
 18 40  1  0  0  0
 18 41  1  0  0  0
 19 42  1  0  0  0
 19 43  1  0  0  0
 20 44  1  0  0  0
 21 26  1  0  0  0
 21 22  2  0  0  0
 22 23  1  0  0  0
 22 45  1  0  0  0
 23 24  2  0  0  0
 23 46  1  0  0  0
 24 25  1  0  0  0
 24 27  1  0  0  0
 25 26  2  0  0  0
 25 47  1  0  0  0
 27 48  1  0  0  0
M  CHG  1  15   1
M  END
> <s_m_source_file>
/home/yujie/leadopt/data/result/selection/PSK13/lig_41.sdf

> <i_m_source_file_index>
1

> <i_lp_mmshare_version>
51139

> <i_f3d_flags>
0

> <s_epik_input>
bjFbY0hdYyhbT0hdKVtjSF1bY0hdYzEtYyhvMiljKEMoPU8pW05IXVtDSDNdKWMoYzIzKWMoYyhbT0hdKVtjSF1bY0hdMylbQ0gyXU40W0NIMl1bQ0gyXVtDSDJdW0NIMl00

> <s_epik_cmdline>
J2VwaWtfcHl0aG9uJywgJy1waHQnLCAnMi4wJywgJy1waCcsICc3LjAnLCAnLXRuJywgJzgnLCAnLW1hJywgJzIwMCcsICctaW1hZScsICc8aW5maWxlLm1hZT4nLCAnLW9tYWUnLCAnPG91dGZpbGUubWFlPic=

> <r_lp_tautomer_probability>
0.43658

> <r_epik_Ionization_Penalty>
  0.4423

> <r_epik_Ionization_Penalty_Charging>
  0.0208

> <r_epik_Ionization_Penalty_Neutral>
  0.4214

> <r_epik_State_Penalty>
  0.9525

> <r_epik_Charging_Adjusted_Penalty>
0.973298

> <i_epik_Tot_Q>
1

> <i_epik_Tot_abs_Q>
1

> <s_lp_Force_Field>
OPLS3e

> <r_lp_Energy>
31.72

> <b_lp_Chiralities_Consistent>
1

> <s_lp_Variant>
/home/yujie/leadopt/data/result/selection/PSK13/lig_41.sdf:1-4

> <s_i_glide_gridfile>
glide-grid_PSK13

> <i_i_glide_lignum>
4

> <i_i_glide_rotatable_bonds>
7

> <r_i_docking_score>
-8.9216237888216

> <r_i_glide_ligand_efficiency>
-0.330430510697096

> <r_i_glide_ligand_efficiency_sa>
-0.991291531002244

> <r_i_glide_ligand_efficiency_ln>
-2.07680693357423

> <r_i_glide_gscore>
-9.8740807888216

> <r_i_glide_lipo>
-4.08453155380521

> <r_i_glide_hbond>
-0.454562664409219

> <r_i_glide_metal>
-0

> <r_i_glide_rewards>
-1.473233111706

> <r_i_glide_evdw>
-44.4371681213379

> <r_i_glide_ecoul>
-14.7186708450317

> <r_i_glide_erotb>
0.567905573920483

> <r_i_glide_esite>
0

> <r_i_glide_emodel>
-99.3874445802212

> <r_i_glide_energy>
-59.1558389663696

> <r_i_glide_einternal>
5.99924278259277

> <i_i_glide_confnum>
59

> <i_i_glide_posenum>
116

> <r_i_glide_eff_state_penalty>
0.952457

$$$$
