/home/yujie/leadopt/data/result/selection/HO1/lig_11c.sdf:1
                    3D
 Schrodinger Suite 2021-2.
 48 50  0  0  1  0            999 V2000
  -25.9701  -10.9211    8.0195 O   0  0  0  0  0  0
  -25.2302   -9.9394    7.8957 C   0  0  0  0  0  0
  -24.0410  -10.0039    7.2464 N   0  0  0  0  0  0
  -23.2925   -8.7687    6.9109 C   0  0  0  0  0  0
  -23.9210   -7.9332    5.7764 C   0  0  0  0  0  0
  -24.9469   -8.4633    4.9484 C   0  0  0  0  0  0
  -25.3879   -7.7536    3.8148 C   0  0  0  0  0  0
  -24.8197   -6.5021    3.5019 C   0  0  0  0  0  0
  -23.8569   -5.9299    4.3589 C   0  0  0  0  0  0
  -23.4212   -6.6337    5.5037 C   0  0  0  0  0  0
  -23.3900  -11.2938    6.9159 C   0  0  0  0  0  0
  -24.2623  -12.2512    6.0738 C   0  0  0  0  0  0
  -23.4448  -13.2951    5.2824 C   0  0  0  0  0  0
  -22.9310  -14.4122    6.0556 N   0  0  0  0  0  0
  -22.9193  -14.6194    7.4374 C   0  0  0  0  0  0
  -22.3962  -15.8794    7.6345 C   0  0  0  0  0  0
  -22.0571  -16.4491    6.4057 N   0  0  0  0  0  0
  -22.3931  -15.5176    5.5183 C   0  0  0  0  0  0
  -25.6050   -8.6006    8.5763 C   0  0  0  0  0  0
  -27.0891   -8.4042    8.7056 C   0  0  0  0  0  0
  -27.6615   -7.2749    8.0807 C   0  0  0  0  0  0
  -29.0581   -7.1105    8.0934 C   0  0  0  0  0  0
  -29.8634   -8.0965    8.7078 C   0  0  0  0  0  0
  -29.2865   -9.1744    9.4172 C   0  0  0  0  0  0
  -27.8900   -9.3269    9.4246 C   0  0  0  0  0  0
  -23.1640   -8.1480    7.7987 H   0  0  0  0  0  0
  -22.2597   -9.0022    6.6647 H   0  0  0  0  0  0
  -25.3701   -9.4394    5.1239 H   0  0  0  0  0  0
  -26.1441   -8.1813    3.1726 H   0  0  0  0  0  0
  -25.1503   -5.9651    2.6247 H   0  0  0  0  0  0
  -23.4604   -4.9513    4.1367 H   0  0  0  0  0  0
  -22.6596   -6.2016    6.1364 H   0  0  0  0  0  0
  -22.4913  -11.1084    6.3357 H   0  0  0  0  0  0
  -23.0566  -11.7597    7.8424 H   0  0  0  0  0  0
  -25.0048  -12.7627    6.6865 H   0  0  0  0  0  0
  -24.8257  -11.6642    5.3477 H   0  0  0  0  0  0
  -24.0886  -13.7126    4.5075 H   0  0  0  0  0  0
  -22.6118  -12.8382    4.7550 H   0  0  0  0  0  0
  -23.3011  -13.9053    8.1514 H   0  0  0  0  0  0
  -22.2360  -16.4128    8.5599 H   0  0  0  0  0  0
  -22.2717  -15.6546    4.4530 H   0  0  0  0  0  0
  -25.2373   -7.7302    8.0415 H   0  0  0  0  0  0
  -25.1364   -8.5556    9.5543 H   0  0  0  0  0  0
  -27.0494   -6.5529    7.5603 H   0  0  0  0  0  0
  -29.5163   -6.2741    7.5869 H   0  0  0  0  0  0
  -30.9403   -8.0275    8.6612 H   0  0  0  0  0  0
  -29.9188   -9.9013    9.9044 H   0  0  0  0  0  0
  -27.4616  -10.1839    9.9214 H   0  0  0  0  0  0
  1  2  2  0  0  0
  2  3  1  0  0  0
  2 19  1  0  0  0
  3  4  1  0  0  0
  3 11  1  0  0  0
  4  5  1  0  0  0
  4 26  1  0  0  0
  4 27  1  0  0  0
  5 10  1  0  0  0
  5  6  2  0  0  0
  6  7  1  0  0  0
  6 28  1  0  0  0
  7  8  2  0  0  0
  7 29  1  0  0  0
  8  9  1  0  0  0
  8 30  1  0  0  0
  9 10  2  0  0  0
  9 31  1  0  0  0
 10 32  1  0  0  0
 11 12  1  0  0  0
 11 33  1  0  0  0
 11 34  1  0  0  0
 12 13  1  0  0  0
 12 35  1  0  0  0
 12 36  1  0  0  0
 13 14  1  0  0  0
 13 37  1  0  0  0
 13 38  1  0  0  0
 14 18  1  0  0  0
 14 15  1  0  0  0
 15 16  2  0  0  0
 15 39  1  0  0  0
 16 17  1  0  0  0
 16 40  1  0  0  0
 17 18  2  0  0  0
 18 41  1  0  0  0
 19 20  1  0  0  0
 19 42  1  0  0  0
 19 43  1  0  0  0
 20 25  1  0  0  0
 20 21  2  0  0  0
 21 22  1  0  0  0
 21 44  1  0  0  0
 22 23  2  0  0  0
 22 45  1  0  0  0
 23 24  1  0  0  0
 23 46  1  0  0  0
 24 25  2  0  0  0
 24 47  1  0  0  0
 25 48  1  0  0  0
M  END
> <s_m_entry_id>
316

> <s_m_entry_name>
HO1_lig_11c.1

> <s_m_Source_Path>
C:\Users\yujiethinkpad\Desktop\selection\HO1\original_p

> <s_m_Source_File>
HO1_lig_11c.sdf

> <i_m_Source_File_Index>
1

> <i_lp_mmshare_version>
51139

> <i_f3d_flags>
0

> <s_epik_input>
W2NIXTFbY0hdW2NIXVtjSF1bY0hdYzFbQ0gyXUMoPU8pTihbQ0gyXWMyW2NIXVtjSF1bY0hdW2NIXVtjSF0yKVtDSDJdW0NIMl1bQ0gyXW4zW2NIXVtjSF1uW2NIXTM=

> <s_epik_cmdline>
J2VwaWtfcHl0aG9uJywgJy1waHQnLCAnMi4wJywgJy1waCcsICc3LjAnLCAnLXRuJywgJzgnLCAnLW1hJywgJzIwMCcsICctaW1hZScsICc8aW5maWxlLm1hZT4nLCAnLW9tYWUnLCAnPG91dGZpbGUubWFlPic=

> <r_epik_Ionization_Penalty>
  0.6073

> <r_epik_Ionization_Penalty_Charging>
  0.6073

> <r_epik_Ionization_Penalty_Neutral>
  0.0000

> <r_epik_State_Penalty>
  0.6222

> <r_epik_Charging_Adjusted_Penalty>
1.22955

> <i_epik_Tot_Q>
0

> <i_epik_Tot_abs_Q>
0

> <s_lp_Force_Field>
OPLS3e

> <r_lp_Energy>
33.1805

> <b_lp_Chiralities_Consistent>
1

> <s_lp_Variant>
/home/yujie/leadopt/data/result/selection/HO1/lig_11c.sdf:1-2

> <s_i_glide_gridfile>
glide-grid_HO1

> <i_i_glide_lignum>
12

> <i_i_glide_rotatable_bonds>
9

> <r_i_docking_score>
-6.16087888546109

> <r_i_glide_ligand_efficiency>
-0.246435155418444

> <r_i_glide_ligand_efficiency_sa>
-0.720580764989621

> <r_i_glide_ligand_efficiency_ln>
-1.46031292249602

> <r_i_glide_gscore>
-6.78307888546109

> <r_i_glide_lipo>
-3.63114667945105

> <r_i_glide_hbond>
0

> <r_i_glide_metal>
0

> <r_i_glide_rewards>
-2.2827011202145

> <r_i_glide_evdw>
-35.1262435913086

> <r_i_glide_ecoul>
-0.512306332588196

> <r_i_glide_erotb>
1.01718751926419

> <r_i_glide_esite>
-0.0532604756060802

> <r_i_glide_emodel>
-28.2191685281053

> <r_i_glide_energy>
-35.6385499238968

> <r_i_glide_einternal>
4.16688013076782

> <i_i_glide_confnum>
66

> <i_i_glide_posenum>
224

> <r_i_glide_eff_state_penalty>
0.6222

> <r_lp_tautomer_probability>
1

> <s_m_job_name>
glide-dock_SP_all

> <r_glide_shape_similarity>
0.790259420871735

> <s_m_subgroup_title>
glide-dock_SP_all_lib1

> <s_m_subgroupid>
glide-dock_SP_all_lib1

> <b_m_subgroup_collapsed>
0

$$$$
