/home/yujie/leadopt/data/result/selection/HO1/lig_7b.sdf:1
                    3D
 Schrodinger Suite 2021-2.
 30 31  0  0  1  0            999 V2000
  -25.2252  -10.7979    8.0600 O   0  0  0  0  0  0
  -25.1878   -9.6632    7.5726 C   0  0  0  0  0  0
  -25.5000   -8.5194    8.5131 C   0  0  0  0  0  0
  -26.9265   -8.4397    8.7120 N   0  0  0  0  0  0
  -27.7598   -9.3985    9.2255 C   0  0  0  0  0  0
  -28.9857   -8.8194    9.3069 C   0  0  0  0  0  0
  -28.8562   -7.5552    8.8051 N   0  3  0  0  0  0
  -27.6004   -7.3273    8.4367 C   0  0  0  0  0  0
  -24.9706   -9.4568    6.2657 N   0  0  0  0  0  0
  -25.0556  -10.6683    5.4412 C   0  0  0  0  0  0
  -24.7313   -8.2055    5.6149 C   0  0  0  0  0  0
  -23.8402   -7.2385    6.1271 C   0  0  0  0  0  0
  -23.4700   -6.1219    5.3619 C   0  0  0  0  0  0
  -23.9157   -6.0052    4.0394 C   0  0  0  0  0  0
  -24.8093   -6.9466    3.5258 C   0  0  0  0  0  0
  -25.2370   -8.0162    4.3157 C   0  0  0  0  0  0
  -25.1362   -7.5439    8.2101 H   0  0  0  0  0  0
  -25.0561   -8.7016    9.4960 H   0  0  0  0  0  0
  -27.4233  -10.3845    9.5098 H   0  0  0  0  0  0
  -29.9341   -9.2000    9.6634 H   0  0  0  0  0  0
  -27.1998   -6.4214    8.0151 H   0  0  0  0  0  0
  -24.6618  -10.5292    4.4316 H   0  0  0  0  0  0
  -24.4708  -11.4977    5.8583 H   0  0  0  0  0  0
  -26.0981  -10.9990    5.3642 H   0  0  0  0  0  0
  -23.3694   -7.3707    7.0846 H   0  0  0  0  0  0
  -22.7836   -5.3937    5.7676 H   0  0  0  0  0  0
  -23.6013   -5.1754    3.4321 H   0  0  0  0  0  0
  -25.1612   -6.8628    2.5079 H   0  0  0  0  0  0
  -25.9149   -8.7347    3.8818 H   0  0  0  0  0  0
  -29.6057   -6.8782    8.7142 H   0  0  0  0  0  0
  1  2  2  0  0  0
  2  3  1  0  0  0
  2  9  1  0  0  0
  3  4  1  0  0  0
  3 17  1  0  0  0
  3 18  1  0  0  0
  4  8  1  0  0  0
  4  5  1  0  0  0
  5  6  2  0  0  0
  5 19  1  0  0  0
  6  7  1  0  0  0
  6 20  1  0  0  0
  7  8  2  0  0  0
  7 30  1  0  0  0
  8 21  1  0  0  0
  9 10  1  0  0  0
  9 11  1  0  0  0
 10 22  1  0  0  0
 10 23  1  0  0  0
 10 24  1  0  0  0
 11 16  1  0  0  0
 11 12  2  0  0  0
 12 13  1  0  0  0
 12 25  1  0  0  0
 13 14  2  0  0  0
 13 26  1  0  0  0
 14 15  1  0  0  0
 14 27  1  0  0  0
 15 16  2  0  0  0
 15 28  1  0  0  0
 16 29  1  0  0  0
M  CHG  1   7   1
M  END
> <s_m_entry_id>
324

> <s_m_entry_name>
HO1_lig_7b.1

> <s_m_Source_Path>
C:\Users\yujiethinkpad\Desktop\selection\HO1\original_p

> <s_m_Source_File>
HO1_lig_7b.sdf

> <i_m_Source_File_Index>
1

> <i_lp_mmshare_version>
51139

> <i_f3d_flags>
0

> <s_epik_input>
W2NIXTFuW2NIXVtjSF1uMVtDSDJdQyg9TylOKFtDSDNdKWMyW2NIXVtjSF1bY0hdW2NIXVtjSF0y

> <s_epik_cmdline>
J2VwaWtfcHl0aG9uJywgJy1waHQnLCAnMi4wJywgJy1waCcsICc3LjAnLCAnLXRuJywgJzgnLCAnLW1hJywgJzIwMCcsICctaW1hZScsICc8aW5maWxlLm1hZT4nLCAnLW9tYWUnLCAnPG91dGZpbGUubWFlPic=

> <r_epik_Ionization_Penalty>
  0.6786

> <r_epik_Ionization_Penalty_Charging>
  0.0000

> <r_epik_Ionization_Penalty_Neutral>
  0.6786

> <r_epik_State_Penalty>
  0.6995

> <r_epik_Charging_Adjusted_Penalty>
0.699457

> <i_epik_Tot_Q>
1

> <i_epik_Tot_abs_Q>
1

> <s_lp_Force_Field>
OPLS3e

> <r_lp_Energy>
34.6448

> <b_lp_Chiralities_Consistent>
1

> <s_lp_Variant>
/home/yujie/leadopt/data/result/selection/HO1/lig_7b.sdf:1-2

> <s_i_glide_gridfile>
glide-grid_HO1

> <i_i_glide_lignum>
14

> <i_i_glide_rotatable_bonds>
4

> <r_i_docking_score>
-5.47974273413207

> <r_i_glide_ligand_efficiency>
-0.342483920883254

> <r_i_glide_ligand_efficiency_sa>
-0.863005401545098

> <r_i_glide_ligand_efficiency_ln>
-1.45251527202752

> <r_i_glide_gscore>
-6.17924273413206

> <r_i_glide_lipo>
-2.16961761408

> <r_i_glide_hbond>
0

> <r_i_glide_metal>
0

> <r_i_glide_rewards>
-3.23508270619684

> <r_i_glide_evdw>
-27.2732410430908

> <r_i_glide_ecoul>
-0.848791062831879

> <r_i_glide_erotb>
0.716438297724095

> <r_i_glide_esite>
0

> <r_i_glide_emodel>
-2.77424557652242

> <r_i_glide_energy>
-28.1220321059227

> <r_i_glide_einternal>
0.507668375968933

> <i_i_glide_confnum>
2

> <i_i_glide_posenum>
366

> <r_i_glide_eff_state_penalty>
0.6995

> <r_lp_tautomer_probability>
1

> <s_m_job_name>
glide-dock_SP_all

> <r_glide_shape_similarity>
0.614696025848389

> <s_m_subgroup_title>
glide-dock_SP_all_lib1

> <s_m_subgroupid>
glide-dock_SP_all_lib1

> <b_m_subgroup_collapsed>
0

$$$$
