/home/yujie/leadopt/data/result/selection/HO1/lig_7o.sdf:1
                    3D
 Schrodinger Suite 2021-2.
 57 60  0  0  1  0            999 V2000
  -23.3001  -14.6887    9.0933 O   0  0  0  0  0  0
  -24.2427  -15.3709    8.6927 C   0  0  0  0  0  0
  -24.8475  -16.4166    9.6530 C   0  0  0  0  0  0
  -23.8609  -16.9221   10.6347 N   0  0  0  0  0  0
  -22.9249  -17.9196   10.4623 C   0  0  0  0  0  0
  -22.3036  -18.0925   11.6799 C   0  0  0  0  0  0
  -22.8895  -17.1991   12.5476 N   0  3  0  0  0  0
  -23.8405  -16.4955   11.9068 C   0  0  0  0  0  0
  -24.7000  -15.2946    7.4148 N   0  0  0  0  0  0
  -26.0366  -15.8153    7.0533 C   0  0  0  0  0  0
  -23.9844  -14.5345    6.3566 C   0  0  2  0  0  0
  -22.6623  -15.1162    5.8704 C   0  0  0  0  0  0
  -22.1947  -14.6922    4.6080 C   0  0  0  0  0  0
  -21.0637  -15.2967    4.0239 C   0  0  0  0  0  0
  -20.3676  -16.3094    4.7184 C   0  0  0  0  0  0
  -20.8065  -16.7092    5.9995 C   0  0  0  0  0  0
  -21.9517  -16.1225    6.5700 C   0  0  0  0  0  0
  -23.9972  -13.0268    6.5909 C   0  0  0  0  0  0
  -22.8999  -12.3333    7.1437 C   0  0  0  0  0  0
  -23.0449  -10.9677    7.4671 C   0  0  0  0  0  0
  -24.2663  -10.2835    7.2610 C   0  0  0  0  0  0
  -24.3882   -9.0080    7.7712 O   0  0  0  0  0  0
  -25.3919   -8.1550    7.2443 C   0  0  0  0  0  0
  -24.9944   -7.6821    5.8628 C   0  0  0  0  0  0
  -25.7033   -8.0991    4.7187 C   0  0  0  0  0  0
  -25.3266   -7.6267    3.4465 C   0  0  0  0  0  0
  -24.2421   -6.7401    3.3148 C   0  0  0  0  0  0
  -23.5213   -6.3436    4.4577 C   0  0  0  0  0  0
  -23.8905   -6.8145    5.7296 C   0  0  0  0  0  0
  -25.3268  -10.9677    6.6274 C   0  0  0  0  0  0
  -25.1899  -12.3266    6.3036 C   0  0  0  0  0  0
  -25.2164  -17.2881    9.1154 H   0  0  0  0  0  0
  -25.6923  -15.9831   10.1893 H   0  0  0  0  0  0
  -22.7880  -18.4266    9.5174 H   0  0  0  0  0  0
  -21.5154  -18.7665   11.9856 H   0  0  0  0  0  0
  -24.4721  -15.7273   12.3154 H   0  0  0  0  0  0
  -26.1017  -16.8951    7.1767 H   0  0  0  0  0  0
  -26.8009  -15.3576    7.6853 H   0  0  0  0  0  0
  -26.3232  -15.6125    6.0183 H   0  0  0  0  0  0
  -24.5805  -14.6396    5.4495 H   0  0  0  0  0  0
  -22.7325  -13.9303    4.0610 H   0  0  0  0  0  0
  -20.7293  -14.9835    3.0458 H   0  0  0  0  0  0
  -19.4998  -16.7729    4.2723 H   0  0  0  0  0  0
  -20.2723  -17.4779    6.5365 H   0  0  0  0  0  0
  -22.2591  -16.4929    7.5314 H   0  0  0  0  0  0
  -21.9807  -12.8495    7.3784 H   0  0  0  0  0  0
  -22.2210  -10.4404    7.9222 H   0  0  0  0  0  0
  -26.3911   -8.5849    7.2713 H   0  0  0  0  0  0
  -25.4452   -7.2785    7.8920 H   0  0  0  0  0  0
  -26.5438   -8.7710    4.8094 H   0  0  0  0  0  0
  -25.8682   -7.9459    2.5695 H   0  0  0  0  0  0
  -23.9531   -6.3898    2.3304 H   0  0  0  0  0  0
  -22.6674   -5.6956    4.3614 H   0  0  0  0  0  0
  -23.3316   -6.5077    6.6025 H   0  0  0  0  0  0
  -26.2750  -10.5013    6.4301 H   0  0  0  0  0  0
  -26.0357  -12.8470    5.8798 H   0  0  0  0  0  0
  -22.6322  -17.0739   13.5250 H   0  0  0  0  0  0
  1  2  2  0  0  0
  2  3  1  0  0  0
  2  9  1  0  0  0
  3  4  1  0  0  0
  3 32  1  0  0  0
  3 33  1  0  0  0
  4  8  1  0  0  0
  4  5  1  0  0  0
  5  6  2  0  0  0
  5 34  1  0  0  0
  6  7  1  0  0  0
  6 35  1  0  0  0
  7  8  2  0  0  0
  7 57  1  0  0  0
  8 36  1  0  0  0
  9 10  1  0  0  0
  9 11  1  0  0  0
 10 37  1  0  0  0
 10 38  1  0  0  0
 10 39  1  0  0  0
 11 12  1  0  0  0
 11 18  1  0  0  0
 11 40  1  0  0  0
 12 17  1  0  0  0
 12 13  2  0  0  0
 13 14  1  0  0  0
 13 41  1  0  0  0
 14 15  2  0  0  0
 14 42  1  0  0  0
 15 16  1  0  0  0
 15 43  1  0  0  0
 16 17  2  0  0  0
 16 44  1  0  0  0
 17 45  1  0  0  0
 18 31  1  0  0  0
 18 19  2  0  0  0
 19 20  1  0  0  0
 19 46  1  0  0  0
 20 21  2  0  0  0
 20 47  1  0  0  0
 21 22  1  0  0  0
 21 30  1  0  0  0
 22 23  1  0  0  0
 23 24  1  0  0  0
 23 48  1  0  0  0
 23 49  1  0  0  0
 24 29  1  0  0  0
 24 25  2  0  0  0
 25 26  1  0  0  0
 25 50  1  0  0  0
 26 27  2  0  0  0
 26 51  1  0  0  0
 27 28  1  0  0  0
 27 52  1  0  0  0
 28 29  2  0  0  0
 28 53  1  0  0  0
 29 54  1  0  0  0
 30 31  2  0  0  0
 30 55  1  0  0  0
 31 56  1  0  0  0
M  CHG  1   7   1
M  END
> <s_m_entry_id>
312

> <s_m_entry_name>
HO1_lig_7o.1

> <s_m_Source_Path>
C:\Users\yujiethinkpad\Desktop\selection\HO1\original_p

> <s_m_Source_File>
HO1_lig_7o.sdf

> <i_m_Source_File_Index>
1

> <i_lp_mmshare_version>
51139

> <i_f3d_flags>
0

> <s_epik_input>
W2NIXTFuW2NIXVtjSF1uMVtDSDJdQyg9TylOKFtDSDNdKVtDQEhdKGMyW2NIXVtjSF1bY0hdW2NIXVtjSF0yKWMzW2NIXVtjSF1jKFtjSF1bY0hdMylPW0NIMl1jNFtjSF1bY0hdW2NIXVtjSF1bY0hdNA==

> <s_epik_cmdline>
J2VwaWtfcHl0aG9uJywgJy1waHQnLCAnMi4wJywgJy1waCcsICc3LjAnLCAnLXRuJywgJzgnLCAnLW1hJywgJzIwMCcsICctaW1hZScsICc8aW5maWxlLm1hZT4nLCAnLW9tYWUnLCAnPG91dGZpbGUubWFlPic=

> <r_epik_Ionization_Penalty>
  0.6221

> <r_epik_Ionization_Penalty_Charging>
  0.0000

> <r_epik_Ionization_Penalty_Neutral>
  0.6221

> <r_epik_State_Penalty>
  0.6382

> <r_epik_Charging_Adjusted_Penalty>
0.638167

> <i_epik_Tot_Q>
1

> <i_epik_Tot_abs_Q>
1

> <s_lp_Force_Field>
OPLS3e

> <r_lp_Energy>
56.787

> <b_lp_Chiralities_Consistent>
1

> <s_lp_Variant>
/home/yujie/leadopt/data/result/selection/HO1/lig_7o.sdf:1-2

> <s_i_glide_gridfile>
glide-grid_HO1

> <i_i_glide_lignum>
8

> <i_i_glide_rotatable_bonds>
9

> <r_i_docking_score>
-6.50726449732584

> <r_i_glide_ligand_efficiency>
-0.209911757978253

> <r_i_glide_ligand_efficiency_sa>
-0.659412734467543

> <r_i_glide_ligand_efficiency_ln>
-1.46758756785394

> <r_i_glide_gscore>
-7.14546449732584

> <r_i_glide_lipo>
-3.74368351518736

> <r_i_glide_hbond>
0

> <r_i_glide_metal>
0

> <r_i_glide_rewards>
-1.70088547658468

> <r_i_glide_evdw>
-40.2946395874023

> <r_i_glide_ecoul>
-4.08849382400513

> <r_i_glide_erotb>
0.92711054741709

> <r_i_glide_esite>
0

> <r_i_glide_emodel>
-13.1717569597663

> <r_i_glide_energy>
-44.3831334114075

> <r_i_glide_einternal>
0.833851516246796

> <i_i_glide_confnum>
21

> <i_i_glide_posenum>
77

> <r_i_glide_eff_state_penalty>
0.6382

> <r_lp_tautomer_probability>
1

> <s_m_job_name>
glide-dock_SP_all

> <r_glide_shape_similarity>
0.500076055526733

> <s_m_subgroup_title>
glide-dock_SP_all_lib1

> <s_m_subgroupid>
glide-dock_SP_all_lib1

> <b_m_subgroup_collapsed>
0

$$$$
