/home/yujie/leadopt/data/result/selection/HO1/lig_7m.sdf:1
                    3D
 Schrodinger Suite 2021-2.
 43 45  0  0  1  0            999 V2000
  -25.1985  -12.2478    6.5484 O   0  0  0  0  0  0
  -24.1614  -11.6275    6.7967 C   0  0  0  0  0  0
  -22.8121  -12.3582    6.5824 C   0  0  0  0  0  0
  -22.7779  -13.8382    6.5050 N   0  0  0  0  0  0
  -22.5047  -14.5631    5.3544 C   0  0  0  0  0  0
  -22.4690  -15.8932    5.7182 C   0  0  0  0  0  0
  -22.7199  -15.9307    7.0716 N   0  3  0  0  0  0
  -22.9004  -14.6762    7.5531 C   0  0  0  0  0  0
  -24.1467  -10.2742    7.0085 N   0  0  0  0  0  0
  -23.0366   -9.6453    7.7331 C   0  0  0  0  0  0
  -25.2426   -9.3504    6.5357 C   0  0  2  0  0  0
  -24.7697   -8.1620    5.6605 C   0  0  0  0  0  0
  -25.2232   -8.0432    4.3211 C   0  0  0  0  0  0
  -24.7969   -6.9666    3.5067 C   0  0  0  0  0  0
  -23.9054   -5.9976    4.0225 C   0  0  0  0  0  0
  -23.4692   -6.0904    5.3600 C   0  0  0  0  0  0
  -23.9004   -7.1540    6.1694 C   0  0  0  0  0  0
  -26.2661   -8.9621    7.6194 C   0  0  0  0  0  0
  -26.8234   -7.6586    7.7117 C   0  0  0  0  0  0
  -27.8436   -7.3911    8.6431 C   0  0  0  0  0  0
  -28.6589   -5.6973    8.7050 Br  0  0  0  0  0  0
  -28.3266   -8.3991    9.5046 C   0  0  0  0  0  0
  -27.7842   -9.6982    9.4166 C   0  0  0  0  0  0
  -26.7560   -9.9745    8.4915 C   0  0  0  0  0  0
  -21.9648  -12.0269    7.1737 H   0  0  0  0  0  0
  -22.6587  -12.0973    5.5445 H   0  0  0  0  0  0
  -22.3507  -14.0879    4.3947 H   0  0  0  0  0  0
  -22.3096  -16.7834    5.1111 H   0  0  0  0  0  0
  -23.0840  -14.3844    8.5743 H   0  0  0  0  0  0
  -22.4302  -10.3387    8.3045 H   0  0  0  0  0  0
  -22.3467   -9.1244    7.0662 H   0  0  0  0  0  0
  -23.4368   -8.9518    8.4668 H   0  0  0  0  0  0
  -25.8404   -9.9475    5.8428 H   0  0  0  0  0  0
  -25.8975   -8.7783    3.9142 H   0  0  0  0  0  0
  -25.1482   -6.8898    2.4893 H   0  0  0  0  0  0
  -23.5770   -5.1792    3.4006 H   0  0  0  0  0  0
  -22.8123   -5.3308    5.7653 H   0  0  0  0  0  0
  -23.5767   -7.1652    7.1970 H   0  0  0  0  0  0
  -26.5001   -6.8943    7.0310 H   0  0  0  0  0  0
  -29.1200   -8.1983   10.2028 H   0  0  0  0  0  0
  -28.1613  -10.4946   10.0400 H   0  0  0  0  0  0
  -26.3726  -10.9817    8.4290 H   0  0  0  0  0  0
  -22.7539  -16.7805    7.6318 H   0  0  0  0  0  0
  1  2  2  0  0  0
  2  3  1  0  0  0
  2  9  1  0  0  0
  3  4  1  0  0  0
  3 25  1  0  0  0
  3 26  1  0  0  0
  4  8  1  0  0  0
  4  5  1  0  0  0
  5  6  2  0  0  0
  5 27  1  0  0  0
  6  7  1  0  0  0
  6 28  1  0  0  0
  7  8  2  0  0  0
  7 43  1  0  0  0
  8 29  1  0  0  0
  9 10  1  0  0  0
  9 11  1  0  0  0
 10 30  1  0  0  0
 10 31  1  0  0  0
 10 32  1  0  0  0
 11 12  1  0  0  0
 11 18  1  0  0  0
 11 33  1  0  0  0
 12 17  1  0  0  0
 12 13  2  0  0  0
 13 14  1  0  0  0
 13 34  1  0  0  0
 14 15  2  0  0  0
 14 35  1  0  0  0
 15 16  1  0  0  0
 15 36  1  0  0  0
 16 17  2  0  0  0
 16 37  1  0  0  0
 17 38  1  0  0  0
 18 24  1  0  0  0
 18 19  2  0  0  0
 19 20  1  0  0  0
 19 39  1  0  0  0
 20 21  1  0  0  0
 20 22  2  0  0  0
 22 23  1  0  0  0
 22 40  1  0  0  0
 23 24  2  0  0  0
 23 41  1  0  0  0
 24 42  1  0  0  0
M  CHG  1   7   1
M  END
> <s_m_entry_id>
314

> <s_m_entry_name>
HO1_lig_7m.1

> <s_m_Source_Path>
C:\Users\yujiethinkpad\Desktop\selection\HO1\original_p

> <s_m_Source_File>
HO1_lig_7m.sdf

> <i_m_Source_File_Index>
1

> <i_lp_mmshare_version>
51139

> <i_f3d_flags>
0

> <s_epik_input>
W2NIXTFuW2NIXVtjSF1uMVtDSDJdQyg9TylOKFtDSDNdKVtDQEhdKGMyW2NIXVtjSF1bY0hdW2NIXVtjSF0yKWMzW2NIXWMoQnIpW2NIXVtjSF1bY0hdMw==

> <s_epik_cmdline>
J2VwaWtfcHl0aG9uJywgJy1waHQnLCAnMi4wJywgJy1waCcsICc3LjAnLCAnLXRuJywgJzgnLCAnLW1hJywgJzIwMCcsICctaW1hZScsICc8aW5maWxlLm1hZT4nLCAnLW9tYWUnLCAnPG91dGZpbGUubWFlPic=

> <r_epik_Ionization_Penalty>
  0.6221

> <r_epik_Ionization_Penalty_Charging>
  0.0000

> <r_epik_Ionization_Penalty_Neutral>
  0.6221

> <r_epik_State_Penalty>
  0.6382

> <r_epik_Charging_Adjusted_Penalty>
0.638167

> <i_epik_Tot_Q>
1

> <i_epik_Tot_abs_Q>
1

> <s_lp_Force_Field>
OPLS3e

> <r_lp_Energy>
47.1904

> <b_lp_Chiralities_Consistent>
1

> <s_lp_Variant>
/home/yujie/leadopt/data/result/selection/HO1/lig_7m.sdf:1-2

> <s_i_glide_gridfile>
glide-grid_HO1

> <i_i_glide_lignum>
6

> <i_i_glide_rotatable_bonds>
6

> <r_i_docking_score>
-6.23304141943992

> <r_i_glide_ligand_efficiency>
-0.25971005914333

> <r_i_glide_ligand_efficiency_sa>
-0.749133441614363

> <r_i_glide_ligand_efficiency_ln>
-1.49185282730568

> <r_i_glide_gscore>
-6.87124141943992

> <r_i_glide_lipo>
-3.61145387330616

> <r_i_glide_hbond>
0

> <r_i_glide_metal>
0

> <r_i_glide_rewards>
-1.86969201356782

> <r_i_glide_evdw>
-33.9552688598633

> <r_i_glide_ecoul>
-2.19147300720215

> <r_i_glide_erotb>
0.655197093724689

> <r_i_glide_esite>
-0.0188082322171474

> <r_i_glide_emodel>
-47.3851091123951

> <r_i_glide_energy>
-36.1467418670654

> <r_i_glide_einternal>
4.23162984848022

> <i_i_glide_confnum>
5

> <i_i_glide_posenum>
116

> <r_i_glide_eff_state_penalty>
0.6382

> <r_lp_tautomer_probability>
1

> <s_m_job_name>
glide-dock_SP_all

> <r_glide_shape_similarity>
0.91868007183075

> <s_m_subgroup_title>
glide-dock_SP_all_lib1

> <s_m_subgroupid>
glide-dock_SP_all_lib1

> <b_m_subgroup_collapsed>
0

$$$$
