ejm_50
                    3D
 Schrodinger Suite 2021-2.
 33 34  0  0  1  0            999 V2000
   -1.9876   21.4977  -27.3503 C   0  0  0  0  0  0
   -3.3207   21.1303  -27.6050 C   0  0  0  0  0  0
   -4.0192   21.6896  -28.6885 C   0  0  0  0  0  0
   -3.3539   22.5605  -29.5790 C   0  0  0  0  0  0
   -2.0139   22.9344  -29.3037 C   0  0  0  0  0  0
   -1.3362   22.4102  -28.1916 C   0  0  0  0  0  0
   -1.1597   24.0367  -30.3063 Cl  0  0  0  0  0  0
   -4.0778   23.0524  -30.7981 C   0  0  0  0  0  0
   -4.2494   22.3360  -31.7807 O   0  0  0  0  0  0
   -4.5200   24.2960  -30.6755 N   0  0  0  0  0  0
   -5.2607   25.1020  -31.5556 C   0  0  0  0  0  0
   -5.9930   24.7449  -32.7112 C   0  0  0  0  0  0
   -6.6728   25.7965  -33.3731 C   0  0  0  0  0  0
   -6.5892   27.1059  -33.0028 N   0  0  0  0  0  0
   -5.8417   27.4099  -31.9129 C   0  0  0  0  0  0
   -5.2225   26.4263  -31.1602 C   0  0  0  0  0  0
   -5.7873   28.8136  -31.5149 N   0  0  0  0  0  0
   -5.1665   29.2887  -30.4348 C   0  0  0  0  0  0
   -4.5609   28.5711  -29.6442 O   0  0  0  0  0  0
   -5.3056   30.7779  -30.3214 C   0  0  0  0  0  0
   -5.6888   21.2898  -28.9081 Cl  0  0  0  0  0  0
   -5.8077   31.0258  -29.3862 H   0  0  0  0  0  0
   -1.4631   21.0765  -26.5047 H   0  0  0  0  0  0
   -3.8148   20.4135  -26.9653 H   0  0  0  0  0  0
   -0.3184   22.7059  -27.9822 H   0  0  0  0  0  0
   -4.3307   24.8182  -29.8319 H   0  0  0  0  0  0
   -6.0112   23.7169  -33.0422 H   0  0  0  0  0  0
   -7.3019   25.5816  -34.2243 H   0  0  0  0  0  0
   -4.7049   26.7041  -30.2539 H   0  0  0  0  0  0
   -6.2959   29.3667  -32.1899 H   0  0  0  0  0  0
   -4.3172   31.2373  -30.3359 H   0  0  0  0  0  0
   -6.1933   32.2422  -31.3885 H   0  0  0  0  0  0
   -6.0491   31.2526  -31.3826 O   0  0  0  0  0  0
  1  2  1  0  0  0
  1  6  2  0  0  0
  1 23  1  0  0  0
  2  3  2  0  0  0
  2 24  1  0  0  0
  3  4  1  0  0  0
  3 21  1  0  0  0
  4  5  2  0  0  0
  4  8  1  0  0  0
  5  6  1  0  0  0
  5  7  1  0  0  0
  6 25  1  0  0  0
  8  9  2  0  0  0
  8 10  1  0  0  0
 10 11  1  0  0  0
 10 26  1  0  0  0
 11 12  1  0  0  0
 11 16  2  0  0  0
 12 13  2  0  0  0
 12 27  1  0  0  0
 13 14  1  0  0  0
 13 28  1  0  0  0
 14 15  2  0  0  0
 15 16  1  0  0  0
 15 17  1  0  0  0
 16 29  1  0  0  0
 17 18  1  0  0  0
 17 30  1  0  0  0
 18 19  2  0  0  0
 18 20  1  0  0  0
 20 22  1  0  0  0
 20 31  1  0  0  0
 20 33  1  0  0  0
 32 33  1  0  0  0
M  END
> <s_m_entry_id>
783

> <s_m_entry_name>
Tyk2_ejm_50.1

> <r_user_dG.exp>
-8.98

> <r_m_Molecular_weight>
340.16807

> <s_m_Source_Path>
C:\Users\yujiethinkpad\Desktop\05A\Tyk2

> <s_m_Source_File>
Tyk2_ejm_50.sdf

> <i_m_Source_File_Index>
1

> <s_m_job_name>
align_ligands_663

> <i_phase_Input_Structure_Number>
2

> <i_phase_Structure_Number>
2

> <r_phase_Similarity_to_Reference>
0.846760171423759

> <i_phase_Reference_Structure>
16

> <s_phase_Alignment_Method>
snapped core

> <s_phase_Alignment_Reason>


> <s_phase_Core_SMARTS>
a1aaaaa1A(=A)Aa2aaaaa2

> <s_f3d_frozen_atoms>
5 6 1 2 3 4 8 9 10 11 12 13 14 15 16 7 25 23 24 21 9 26 27 28 29

> <s_fepmapper_entryid>
4

> <i_fepmapper_bias>
0

> <i_fepmapper_affinity>
1

> <r_fepmapper_exp_dG>
-8.98

> <i_fepmapper_unit>
1

> <s_m_subgroup_title>
align_ligands_663

> <s_m_subgroupid>
align_ligands_663

> <b_m_subgroup_collapsed>
0

$$$$
