ejm_47
                    3D
 Schrodinger Suite 2021-2.
 39 41  0  0  1  0            999 V2000
   -1.9876   21.4977  -27.3503 C   0  0  0  0  0  0
   -3.3207   21.1303  -27.6050 C   0  0  0  0  0  0
   -4.0192   21.6896  -28.6885 C   0  0  0  0  0  0
   -3.3539   22.5605  -29.5790 C   0  0  0  0  0  0
   -2.0139   22.9344  -29.3037 C   0  0  0  0  0  0
   -1.3362   22.4102  -28.1916 C   0  0  0  0  0  0
   -1.1597   24.0367  -30.3063 Cl  0  0  0  0  0  0
   -4.0778   23.0524  -30.7981 C   0  0  0  0  0  0
   -4.2494   22.3360  -31.7807 O   0  0  0  0  0  0
   -4.5200   24.2960  -30.6755 N   0  0  0  0  0  0
   -5.2607   25.1020  -31.5556 C   0  0  0  0  0  0
   -5.9930   24.7449  -32.7112 C   0  0  0  0  0  0
   -6.6728   25.7965  -33.3731 C   0  0  0  0  0  0
   -6.5892   27.1059  -33.0028 N   0  0  0  0  0  0
   -5.8417   27.4099  -31.9129 C   0  0  0  0  0  0
   -5.2225   26.4263  -31.1602 C   0  0  0  0  0  0
   -5.7873   28.8136  -31.5149 N   0  0  0  0  0  0
   -6.3505   29.8273  -32.1730 C   0  0  0  0  0  0
   -6.9897   29.6760  -33.2099 O   0  0  0  0  0  0
   -5.6888   21.2898  -28.9081 Cl  0  0  0  0  0  0
   -1.4631   21.0765  -26.5047 H   0  0  0  0  0  0
   -3.8148   20.4135  -26.9653 H   0  0  0  0  0  0
   -0.3184   22.7059  -27.9822 H   0  0  0  0  0  0
   -4.3307   24.8182  -29.8319 H   0  0  0  0  0  0
   -6.0112   23.7169  -33.0422 H   0  0  0  0  0  0
   -7.3019   25.5816  -34.2243 H   0  0  0  0  0  0
   -4.7049   26.7041  -30.2539 H   0  0  0  0  0  0
   -5.2543   28.8928  -30.6607 H   0  0  0  0  0  0
   -6.1029   31.1406  -31.4919 C   0  0  0  0  0  0
   -7.0110   31.4494  -30.2938 C   0  0  0  0  0  0
   -5.7800   32.0465  -29.5985 C   0  0  0  0  0  0
   -4.9176   31.1707  -30.5175 C   0  0  0  0  0  0
   -7.8287   32.1461  -30.4877 H   0  0  0  0  0  0
   -7.4139   30.5614  -29.8003 H   0  0  0  0  0  0
   -5.6544   33.1201  -29.7605 H   0  0  0  0  0  0
   -5.6936   31.8390  -28.5303 H   0  0  0  0  0  0
   -4.0063   31.6372  -30.8961 H   0  0  0  0  0  0
   -4.6648   30.1954  -30.0940 H   0  0  0  0  0  0
   -6.0784   31.9304  -32.2470 H   0  0  0  0  0  0
  1  2  1  0  0  0
  1  6  2  0  0  0
  1 21  1  0  0  0
  2  3  2  0  0  0
  2 22  1  0  0  0
  3  4  1  0  0  0
  3 20  1  0  0  0
  4  5  2  0  0  0
  4  8  1  0  0  0
  5  6  1  0  0  0
  5  7  1  0  0  0
  6 23  1  0  0  0
  8  9  2  0  0  0
  8 10  1  0  0  0
 10 11  1  0  0  0
 10 24  1  0  0  0
 11 12  1  0  0  0
 11 16  2  0  0  0
 12 13  2  0  0  0
 12 25  1  0  0  0
 13 14  1  0  0  0
 13 26  1  0  0  0
 14 15  2  0  0  0
 15 16  1  0  0  0
 15 17  1  0  0  0
 16 27  1  0  0  0
 17 18  1  0  0  0
 17 28  1  0  0  0
 18 19  2  0  0  0
 18 29  1  0  0  0
 29 30  1  0  0  0
 29 32  1  0  0  0
 29 39  1  0  0  0
 30 31  1  0  0  0
 30 33  1  0  0  0
 30 34  1  0  0  0
 31 32  1  0  0  0
 31 35  1  0  0  0
 31 36  1  0  0  0
 32 37  1  0  0  0
 32 38  1  0  0  0
M  END
> <s_m_entry_id>
794

> <s_m_entry_name>
Tyk2_ejm_47.1

> <r_user_dG.exp>
-9.7

> <r_m_Molecular_weight>
364.234

> <s_m_Source_Path>
C:\Users\yujiethinkpad\Desktop\05A\Tyk2

> <s_m_Source_File>
Tyk2_ejm_47.sdf

> <i_m_Source_File_Index>
1

> <s_m_job_name>
align_ligands_663

> <i_phase_Input_Structure_Number>
13

> <i_phase_Structure_Number>
13

> <r_phase_Similarity_to_Reference>
0.889575226700297

> <i_phase_Reference_Structure>
16

> <s_phase_Alignment_Method>
snapped core

> <s_phase_Alignment_Reason>


> <s_phase_Core_SMARTS>
a1aaaaa1A(=A)Aa2aaaaa2

> <s_f3d_frozen_atoms>
5 6 1 2 3 4 8 9 10 11 12 13 14 15 16 7 23 21 22 20 9 24 25 26 27

> <s_fepmapper_entryid>
14

> <i_fepmapper_bias>
0

> <i_fepmapper_affinity>
1

> <r_fepmapper_exp_dG>
-9.7

> <i_fepmapper_unit>
1

> <s_m_subgroup_title>
align_ligands_663

> <s_m_subgroupid>
align_ligands_663

> <b_m_subgroup_collapsed>
0

$$$$
