26
                    3D
 Schrodinger Suite 2021-2.
 43 46  0  0  1  0            999 V2000
    3.9496  -49.6776    6.4649 O   0  0  0  0  0  0
    3.0306  -48.8299    6.5504 C   0  0  0  0  0  0
    3.2598  -47.6222    6.8017 O   0  5  0  0  0  0
    1.6163  -49.2418    6.3477 C   0  0  0  0  0  0
   -0.1534  -50.6188    6.4345 C   0  0  0  0  0  0
   -1.0341  -51.7121    6.6192 C   0  0  0  0  0  0
   -2.4196  -51.5175    6.3886 C   0  0  0  0  0  0
   -2.9016  -50.2506    5.9797 C   0  0  0  0  0  0
   -2.0065  -49.1734    5.7912 C   0  0  0  0  0  0
   -0.6157  -49.3353    6.0208 C   0  0  0  0  0  0
    0.5303  -48.4775    5.9522 C   0  0  0  0  0  0
    0.4939  -47.0309    5.5205 C   0  0  0  0  0  0
    0.3402  -46.0227    6.6821 C   0  0  0  0  0  0
   -0.9915  -46.0394    7.4855 C   0  0  0  0  0  0
   -2.2046  -45.7508    6.7879 O   0  0  0  0  0  0
   -3.3641  -45.7784    7.5619 C   0  0  0  0  0  0
   -5.7885  -45.7608    9.1222 C   0  0  0  0  0  0
   -4.7042  -46.5725    9.5032 C   0  0  0  0  0  0
   -3.5165  -46.5875    8.7386 C   0  0  0  0  0  0
   -0.6505  -52.6754    6.9295 H   0  0  0  0  0  0
   -3.1079  -52.3399    6.5218 H   0  0  0  0  0  0
   -3.9552  -50.1092    5.7964 H   0  0  0  0  0  0
   -2.3842  -48.2143    5.4738 H   0  0  0  0  0  0
    1.4004  -46.7942    4.9642 H   0  0  0  0  0  0
   -0.3251  -46.8890    4.8156 H   0  0  0  0  0  0
    1.1538  -46.2057    7.3796 H   0  0  0  0  0  0
    0.5082  -45.0222    6.2920 H   0  0  0  0  0  0
   -1.1403  -47.0067    7.9113 H   0  0  0  0  0  0
   -0.9080  -45.3418    8.3217 H   0  0  0  0  0  0
   -2.7481  -47.2473    9.0958 H   0  0  0  0  0  0
   -5.7021  -45.0184    7.9205 C   0  0  0  0  0  0
   -4.4898  -45.0087    7.1513 C   0  0  0  0  0  0
   -4.4415  -44.2378    5.9510 C   0  0  0  0  0  0
   -5.6313  -43.6730    5.4333 C   0  0  0  0  0  0
   -6.8530  -43.8061    6.1368 C   0  0  0  0  0  0
   -6.8748  -44.4054    7.4184 C   0  0  0  0  0  0
   -3.5418  -44.2068    5.3564 H   0  0  0  0  0  0
   -5.6114  -43.1671    4.4814 H   0  0  0  0  0  0
   -7.7586  -43.3887    5.7209 H   0  0  0  0  0  0
   -7.8057  -44.4555    7.9680 H   0  0  0  0  0  0
   -4.7943  -47.2254   10.3530 H   0  0  0  0  0  0
   -6.7066  -45.7771    9.6911 H   0  0  0  0  0  0
    1.2267  -50.5556    6.6144 O   0  0  0  0  0  0
  1  2  2  0  0  0
  2  3  1  0  0  0
  2  4  1  0  0  0
  4 11  2  0  0  0
  4 43  1  0  0  0
  5  6  1  0  0  0
  5 10  2  0  0  0
  5 43  1  0  0  0
  6  7  2  0  0  0
  6 20  1  0  0  0
  7  8  1  0  0  0
  7 21  1  0  0  0
  8  9  2  0  0  0
  8 22  1  0  0  0
  9 10  1  0  0  0
  9 23  1  0  0  0
 10 11  1  0  0  0
 11 12  1  0  0  0
 12 24  1  0  0  0
 12 25  1  0  0  0
 12 13  1  0  0  0
 13 14  1  0  0  0
 13 26  1  0  0  0
 13 27  1  0  0  0
 14 15  1  0  0  0
 14 28  1  0  0  0
 14 29  1  0  0  0
 15 16  1  0  0  0
 16 19  2  0  0  0
 16 32  1  0  0  0
 17 18  2  0  0  0
 17 31  1  0  0  0
 17 42  1  0  0  0
 18 19  1  0  0  0
 18 41  1  0  0  0
 19 30  1  0  0  0
 31 32  2  0  0  0
 31 36  1  0  0  0
 32 33  1  0  0  0
 33 34  2  0  0  0
 33 37  1  0  0  0
 34 35  1  0  0  0
 34 38  1  0  0  0
 35 36  2  0  0  0
 35 39  1  0  0  0
 36 40  1  0  0  0
M  CHG  1   3  -1
M  END
> <s_m_entry_id>
75

> <s_m_entry_name>
MCL1_26.1

> <r_m_Molecular_weight>
345.37839

> <s_m_Source_Path>
C:\Users\yujiethinkpad\Desktop\05A\MCL1\original

> <s_m_Source_File>
MCL1_26.sdf

> <r_user_dG.exp>
-8.23584030891924

> <s_fepmapper_entryid>
2

> <i_fepmapper_bias>
0

> <i_fepmapper_affinity>
1

> <r_fepmapper_exp_dG>
-8.23584030892

> <i_fepmapper_unit>
1

> <i_m_Source_File_Index>
1

> <s_m_job_name>
glide-dock_SP_redock_1080

> <s_i_glide_gridfile>
glide-grid_MCL1

> <i_i_glide_lignum>
11

> <i_i_glide_rotatable_bonds>
6

> <r_i_docking_score>
-8.97616253067174

> <r_i_glide_ligand_efficiency>
-0.345237020410452

> <r_i_glide_ligand_efficiency_sa>
-1.02276331452388

> <r_i_glide_ligand_efficiency_ln>
-2.10802231713669

> <r_i_glide_gscore>
-8.97616253067174

> <r_i_glide_lipo>
-5.51493051961369

> <r_i_glide_hbond>
-0.2

> <r_i_glide_metal>
0

> <r_i_glide_rewards>
-1.95430922727273

> <r_i_glide_evdw>
-30.9701499938965

> <r_i_glide_ecoul>
-2.56361675262451

> <r_i_glide_erotb>
0.637125540834659

> <r_i_glide_esite>
-0.0109983120314853

> <r_i_glide_emodel>
-46.8694121248843

> <r_i_glide_energy>
-33.533766746521

> <r_i_glide_einternal>
4.59974002838135

> <i_i_glide_confnum>
42

> <i_i_glide_posenum>
399

> <r_i_glide_eff_state_penalty>
0

> <r_glide_shape_similarity>
0.903668940067291

> <s_m_subgroup_title>
glide-dock_SP_redock_1080_lib1

> <s_m_subgroupid>
glide-dock_SP_redock_1080_lib1

> <b_m_subgroup_collapsed>
0

$$$$
