28
                    3D
 Schrodinger Suite 2021-2.
 41 43  0  0  1  0            999 V2000
    3.2599  -47.6011    6.7511 O   0  0  0  0  0  0
    3.0125  -48.8111    6.5716 C   0  0  0  0  0  0
    3.8943  -49.6899    6.6135 O   0  5  0  0  0  0
    1.6233  -49.1997    6.3500 C   0  0  0  0  0  0
   -0.1449  -50.6314    6.4260 C   0  0  0  0  0  0
   -1.0552  -51.6849    6.6015 C   0  0  0  0  0  0
   -2.4228  -51.4602    6.3765 C   0  0  0  0  0  0
   -2.8647  -50.1980    5.9625 C   0  0  0  0  0  0
   -1.9446  -49.1645    5.7704 C   0  0  0  0  0  0
   -0.5759  -49.3511    6.0142 C   0  0  0  0  0  0
    0.5414  -48.4742    5.9517 C   0  0  0  0  0  0
    0.4994  -47.0457    5.5162 C   0  0  0  0  0  0
    0.2791  -46.0511    6.6595 C   0  0  0  0  0  0
   -1.0682  -46.1995    7.3978 C   0  0  0  0  0  0
   -2.2576  -45.7152    6.7728 O   0  0  0  0  0  0
   -3.4188  -45.7676    7.5333 C   0  0  0  0  0  0
   -4.5466  -45.0062    7.1510 C   0  0  0  0  0  0
   -5.7027  -44.9640    7.9493 C   0  0  0  0  0  0
   -5.7858  -45.7225    9.1192 C   0  0  0  0  0  0
   -4.7154  -46.5477    9.4723 C   0  0  0  0  0  0
   -3.5454  -46.5612    8.6962 C   0  0  0  0  0  0
   -0.7062  -52.6567    6.9171 H   0  0  0  0  0  0
   -3.1335  -52.2622    6.5155 H   0  0  0  0  0  0
   -3.9158  -50.0226    5.7804 H   0  0  0  0  0  0
   -2.3003  -48.1965    5.4492 H   0  0  0  0  0  0
   -0.2856  -46.9177    4.7717 H   0  0  0  0  0  0
    1.4233  -46.7882    4.9971 H   0  0  0  0  0  0
    0.4598  -45.0318    6.3129 H   0  0  0  0  0  0
    1.0739  -46.2108    7.3885 H   0  0  0  0  0  0
   -0.9680  -45.7239    8.3755 H   0  0  0  0  0  0
   -1.2231  -47.2595    7.5508 H   0  0  0  0  0  0
   -2.7479  -47.2002    9.0397 H   0  0  0  0  0  0
    1.2207  -50.5044    6.5761 N   0  0  0  0  0  0
    1.8839  -51.2069    6.8641 H   0  0  0  0  0  0
   -4.7780  -47.1714   10.3501 H   0  0  0  0  0  0
   -6.6800  -45.6985    9.7247 H   0  0  0  0  0  0
   -6.5442  -44.3553    7.6518 H   0  0  0  0  0  0
   -4.5496  -44.2065    5.8665 C   0  0  0  0  0  0
   -4.3412  -43.1506    6.0249 H   0  0  0  0  0  0
   -3.8178  -44.5927    5.1554 H   0  0  0  0  0  0
   -5.5264  -44.2670    5.3838 H   0  0  0  0  0  0
  1  2  2  0  0  0
  2  3  1  0  0  0
  2  4  1  0  0  0
  4 11  2  0  0  0
  4 33  1  0  0  0
  5  6  1  0  0  0
  5 10  2  0  0  0
  5 33  1  0  0  0
  6  7  2  0  0  0
  6 22  1  0  0  0
  7  8  1  0  0  0
  7 23  1  0  0  0
  8  9  2  0  0  0
  8 24  1  0  0  0
  9 10  1  0  0  0
  9 25  1  0  0  0
 10 11  1  0  0  0
 11 12  1  0  0  0
 12 26  1  0  0  0
 12 27  1  0  0  0
 12 13  1  0  0  0
 13 14  1  0  0  0
 13 28  1  0  0  0
 13 29  1  0  0  0
 14 15  1  0  0  0
 14 30  1  0  0  0
 14 31  1  0  0  0
 15 16  1  0  0  0
 16 17  1  0  0  0
 16 21  2  0  0  0
 17 18  2  0  0  0
 17 38  1  0  0  0
 18 19  1  0  0  0
 18 37  1  0  0  0
 19 20  2  0  0  0
 19 36  1  0  0  0
 20 21  1  0  0  0
 20 35  1  0  0  0
 21 32  1  0  0  0
 33 34  1  0  0  0
 38 39  1  0  0  0
 38 40  1  0  0  0
 38 41  1  0  0  0
M  CHG  1   3  -1
M  END
> <s_m_entry_id>
103

> <s_m_entry_name>
MCL1_28.1

> <r_m_Molecular_weight>
308.36021

> <s_m_Source_Path>
C:\Users\yujiethinkpad\Desktop\05A\MCL1\original

> <s_m_Source_File>
MCL1_28.sdf

> <r_user_dG.exp>
-6.62149034253618

> <s_fepmapper_entryid>
14

> <i_fepmapper_bias>
0

> <i_fepmapper_affinity>
1

> <r_fepmapper_exp_dG>
-6.62149034254

> <i_fepmapper_unit>
1

> <i_m_Source_File_Index>
1

> <s_m_job_name>
glide-dock_SP_redock_1080

> <s_i_glide_gridfile>
glide-grid_MCL1

> <i_i_glide_lignum>
13

> <i_i_glide_rotatable_bonds>
6

> <r_i_docking_score>
-7.64341078429548

> <r_i_glide_ligand_efficiency>
-0.332322208012847

> <r_i_glide_ligand_efficiency_sa>
-0.945080153051335

> <r_i_glide_ligand_efficiency_ln>
-1.84824603425982

> <r_i_glide_gscore>
-7.64341078429548

> <r_i_glide_lipo>
-4.51236330533746

> <r_i_glide_hbond>
-0.2

> <r_i_glide_metal>
0

> <r_i_glide_rewards>
-1.98169690909091

> <r_i_glide_evdw>
-29.8521881103516

> <r_i_glide_ecoul>
-2.79443717002869

> <r_i_glide_erotb>
0.972874471200538

> <r_i_glide_esite>
-0.0104500600457689

> <r_i_glide_emodel>
-42.2383699921097

> <r_i_glide_energy>
-32.6466252803802

> <r_i_glide_einternal>
4.41551208496094

> <i_i_glide_confnum>
32

> <i_i_glide_posenum>
330

> <r_i_glide_eff_state_penalty>
0

> <r_glide_shape_similarity>
0.888866245746613

> <s_m_subgroup_title>
glide-dock_SP_redock_1080_lib1

> <s_m_subgroupid>
glide-dock_SP_redock_1080_lib1

> <b_m_subgroup_collapsed>
0

$$$$
