33
                    3D
 Schrodinger Suite 2021-2.
 38 40  0  0  1  0            999 V2000
    3.9086  -49.7463    6.5648 O   0  0  0  0  0  0
    3.0168  -48.8797    6.5607 C   0  0  0  0  0  0
    3.2592  -47.6702    6.7509 O   0  5  0  0  0  0
    1.6275  -49.2589    6.3542 C   0  0  0  0  0  0
   -0.1664  -50.6549    6.4342 C   0  0  0  0  0  0
   -1.0995  -51.6889    6.5990 C   0  0  0  0  0  0
   -2.4612  -51.4366    6.3688 C   0  0  0  0  0  0
   -2.8756  -50.1606    5.9623 C   0  0  0  0  0  0
   -1.9368  -49.1394    5.7894 C   0  0  0  0  0  0
   -0.5739  -49.3627    6.0309 C   0  0  0  0  0  0
    0.5591  -48.5171    5.9583 C   0  0  0  0  0  0
    0.5551  -47.0936    5.5335 C   0  0  0  0  0  0
    0.4622  -46.1093    6.6999 C   0  0  0  0  0  0
   -0.8883  -46.0740    7.4198 C   0  0  0  0  0  0
   -1.9172  -45.8054    6.5133 O   0  0  0  0  0  0
   -3.1347  -45.4977    7.0552 C   0  0  0  0  0  0
   -3.6209  -46.0672    8.2482 C   0  0  0  0  0  0
   -4.9201  -45.7746    8.6781 C   0  0  0  0  0  0
   -5.7204  -44.9059    7.9160 C   0  0  0  0  0  0
   -5.2459  -44.2930    6.7486 C   0  0  0  0  0  0
   -3.9420  -44.6061    6.3198 C   0  0  0  0  0  0
   -0.7736  -52.6710    6.8997 H   0  0  0  0  0  0
   -3.1863  -52.2274    6.4988 H   0  0  0  0  0  0
   -3.9231  -49.9623    5.7874 H   0  0  0  0  0  0
   -2.2653  -48.1620    5.4756 H   0  0  0  0  0  0
   -0.2599  -46.9185    4.8319 H   0  0  0  0  0  0
    1.4622  -46.8744    4.9675 H   0  0  0  0  0  0
    0.6679  -45.1137    6.3146 H   0  0  0  0  0  0
    1.2474  -46.3030    7.4299 H   0  0  0  0  0  0
   -0.8537  -45.3114    8.2006 H   0  0  0  0  0  0
   -1.1409  -47.0048    7.8956 H   0  0  0  0  0  0
   -3.0373  -46.7639    8.8264 H   0  0  0  0  0  0
   -3.5724  -44.2052    5.3864 H   0  0  0  0  0  0
    1.2031  -50.5587    6.5782 N   0  0  0  0  0  0
    1.8569  -51.2734    6.8616 H   0  0  0  0  0  0
   -5.8789  -43.6424    6.1632 H   0  0  0  0  0  0
   -7.3266  -44.6093    8.3892 Cl  0  0  0  0  0  0
   -5.3162  -46.2362    9.5710 H   0  0  0  0  0  0
  1  2  2  0  0  0
  2  3  1  0  0  0
  2  4  1  0  0  0
  4 11  2  0  0  0
  4 34  1  0  0  0
  5  6  1  0  0  0
  5 10  2  0  0  0
  5 34  1  0  0  0
  6  7  2  0  0  0
  6 22  1  0  0  0
  7  8  1  0  0  0
  7 23  1  0  0  0
  8  9  2  0  0  0
  8 24  1  0  0  0
  9 10  1  0  0  0
  9 25  1  0  0  0
 10 11  1  0  0  0
 11 12  1  0  0  0
 12 26  1  0  0  0
 12 27  1  0  0  0
 12 13  1  0  0  0
 13 14  1  0  0  0
 13 28  1  0  0  0
 13 29  1  0  0  0
 14 15  1  0  0  0
 14 30  1  0  0  0
 14 31  1  0  0  0
 15 16  1  0  0  0
 16 17  1  0  0  0
 16 21  2  0  0  0
 17 18  2  0  0  0
 17 32  1  0  0  0
 18 19  1  0  0  0
 18 38  1  0  0  0
 19 20  2  0  0  0
 19 37  1  0  0  0
 20 21  1  0  0  0
 20 36  1  0  0  0
 21 33  1  0  0  0
 34 35  1  0  0  0
M  CHG  1   3  -1
M  END
> <s_m_entry_id>
107

> <s_m_entry_name>
MCL1_33.1

> <r_m_Molecular_weight>
328.77815

> <s_m_Source_Path>
C:\Users\yujiethinkpad\Desktop\05A\MCL1\original

> <s_m_Source_File>
MCL1_33.sdf

> <r_user_dG.exp>
-6.8752436973459

> <s_fepmapper_entryid>
4

> <i_fepmapper_bias>
0

> <i_fepmapper_affinity>
1

> <r_fepmapper_exp_dG>
-6.87524369735

> <i_fepmapper_unit>
1

> <i_m_Source_File_Index>
1

> <s_m_job_name>
glide-dock_SP_redock_1080

> <s_i_glide_gridfile>
glide-grid_MCL1

> <i_i_glide_lignum>
18

> <i_i_glide_rotatable_bonds>
6

> <r_i_docking_score>
-7.30360900946774

> <r_i_glide_ligand_efficiency>
-0.317548217802945

> <r_i_glide_ligand_efficiency_sa>
-0.903064890176657

> <r_i_glide_ligand_efficiency_ln>
-1.76607888395433

> <r_i_glide_gscore>
-7.30360900946774

> <r_i_glide_lipo>
-4.48065984371495

> <r_i_glide_hbond>
-0.2

> <r_i_glide_metal>
0

> <r_i_glide_rewards>
-1.73975803469779

> <r_i_glide_evdw>
-23.4968090057373

> <r_i_glide_ecoul>
-2.63510131835938

> <r_i_glide_erotb>
0.695202197979963

> <r_i_glide_esite>
-0.00828768099419592

> <r_i_glide_emodel>
-35.4495667326074

> <r_i_glide_energy>
-26.1319103240967

> <r_i_glide_einternal>
4.13595533370972

> <i_i_glide_confnum>
34

> <i_i_glide_posenum>
38

> <r_i_glide_eff_state_penalty>
0

> <r_glide_shape_similarity>
0.920612633228302

> <s_m_subgroup_title>
glide-dock_SP_redock_1080_lib1

> <s_m_subgroupid>
glide-dock_SP_redock_1080_lib1

> <b_m_subgroup_collapsed>
0

$$$$
