38
                    3D
 Schrodinger Suite 2021-2.
 48 51  0  0  1  0            999 V2000
    3.8796  -50.7969    6.7776 O   0  0  0  0  0  0
    3.2485  -49.7179    6.6810 C   0  0  0  0  0  0
    3.8035  -48.6045    6.7774 O   0  5  0  0  0  0
    1.7812  -49.7638    6.4759 C   0  0  0  0  0  0
   -0.2081  -50.8642    6.4483 C   0  0  0  0  0  0
   -1.2385  -51.8146    6.5741 C   0  0  0  0  0  0
   -2.5709  -51.4257    6.3509 C   0  0  0  0  0  0
   -2.8517  -50.1025    5.9599 C   0  0  0  0  0  0
   -1.8092  -49.1594    5.8205 C   0  0  0  0  0  0
   -0.4523  -49.4932    6.1108 C   0  0  0  0  0  0
    0.8342  -48.8031    6.2060 C   0  0  0  0  0  0
    1.2020  -47.3515    6.0962 C   0  0  0  0  0  0
    0.1027  -46.4724    5.5522 C   0  0  0  0  0  0
   -0.8588  -45.8701    6.5789 C   0  0  0  0  0  0
   -1.5353  -46.7694    7.4323 O   0  0  0  0  0  0
   -2.7440  -46.3999    7.9781 C   0  0  0  0  0  0
   -3.6478  -45.5015    7.3958 C   0  0  0  0  0  0
   -4.9278  -45.2643    7.9536 C   0  0  0  0  0  0
   -5.2830  -45.9113    9.1652 C   0  0  0  0  0  0
   -4.3941  -46.8368    9.7421 C   0  0  0  0  0  0
   -3.1408  -47.0609    9.1461 C   0  0  0  0  0  0
   -1.0070  -52.8340    6.8437 H   0  0  0  0  0  0
   -3.3733  -52.1444    6.4534 H   0  0  0  0  0  0
   -3.8725  -49.8080    5.7594 H   0  0  0  0  0  0
   -2.0780  -48.1609    5.5199 H   0  0  0  0  0  0
    1.5447  -46.9672    7.0584 H   0  0  0  0  0  0
    2.0512  -47.2548    5.4180 H   0  0  0  0  0  0
    0.6049  -45.6144    5.1231 H   0  0  0  0  0  0
   -0.4149  -46.9745    4.7394 H   0  0  0  0  0  0
   -0.3415  -45.1235    7.1649 H   0  0  0  0  0  0
   -1.5868  -45.4061    5.9523 H   0  0  0  0  0  0
   -3.4122  -45.0878    6.4425 H   0  0  0  0  0  0
   -2.4292  -47.7569    9.5509 H   0  0  0  0  0  0
    1.1550  -50.9889    6.6009 N   0  0  0  0  0  0
    1.6873  -51.8232    6.8219 H   0  0  0  0  0  0
   -4.6552  -47.4132   10.6121 H   0  0  0  0  0  0
   -6.2471  -45.7723    9.6279 H   0  0  0  0  0  0
   -7.6958  -43.8069    5.1068 C   0  0  0  0  0  0
   -8.1732  -44.3274    6.3230 C   0  0  0  0  0  0
   -7.2768  -44.6074    7.3719 C   0  0  0  0  0  0
   -5.8824  -44.4967    7.1412 C   0  0  0  0  0  0
   -5.4432  -43.8087    5.9707 C   0  0  0  0  0  0
   -6.3406  -43.4729    4.9516 C   0  0  0  0  0  0
   -8.3929  -43.6136    4.3110 H   0  0  0  0  0  0
   -9.2226  -44.5561    6.3937 H   0  0  0  0  0  0
   -7.6750  -45.0870    8.2510 H   0  0  0  0  0  0
   -4.4147  -43.5563    5.7770 H   0  0  0  0  0  0
   -5.9734  -43.0102    4.0469 H   0  0  0  0  0  0
  1  2  2  0  0  0
  2  3  1  0  0  0
  2  4  1  0  0  0
  4 11  2  0  0  0
  4 34  1  0  0  0
  5  6  1  0  0  0
  5 10  2  0  0  0
  5 34  1  0  0  0
  6  7  2  0  0  0
  6 22  1  0  0  0
  7  8  1  0  0  0
  7 23  1  0  0  0
  8  9  2  0  0  0
  8 24  1  0  0  0
  9 10  1  0  0  0
  9 25  1  0  0  0
 10 11  1  0  0  0
 11 12  1  0  0  0
 12 26  1  0  0  0
 12 27  1  0  0  0
 12 13  1  0  0  0
 13 14  1  0  0  0
 13 28  1  0  0  0
 13 29  1  0  0  0
 14 15  1  0  0  0
 14 30  1  0  0  0
 14 31  1  0  0  0
 15 16  1  0  0  0
 16 17  1  0  0  0
 16 21  2  0  0  0
 17 18  2  0  0  0
 17 32  1  0  0  0
 18 19  1  0  0  0
 18 41  1  0  0  0
 19 20  2  0  0  0
 19 37  1  0  0  0
 20 21  1  0  0  0
 20 36  1  0  0  0
 21 33  1  0  0  0
 34 35  1  0  0  0
 38 39  2  0  0  0
 38 43  1  0  0  0
 38 44  1  0  0  0
 39 40  1  0  0  0
 39 45  1  0  0  0
 40 41  2  0  0  0
 40 46  1  0  0  0
 41 42  1  0  0  0
 42 43  2  0  0  0
 42 47  1  0  0  0
 43 48  1  0  0  0
M  CHG  1   3  -1
M  END
> <s_m_entry_id>
81

> <s_m_entry_name>
MCL1_38.1

> <r_m_Molecular_weight>
370.4319

> <s_m_Source_Path>
C:\Users\yujiethinkpad\Desktop\05A\MCL1\original

> <s_m_Source_File>
MCL1_38.sdf

> <r_user_dG.exp>
-7.01900763427615

> <s_fepmapper_entryid>
11

> <i_fepmapper_bias>
0

> <i_fepmapper_affinity>
1

> <r_fepmapper_exp_dG>
-7.01900763428

> <i_fepmapper_unit>
1

> <i_m_Source_File_Index>
1

> <s_m_job_name>
glide-dock_SP_redock_1080

> <s_i_glide_gridfile>
glide-grid_MCL1

> <i_i_glide_lignum>
23

> <i_i_glide_rotatable_bonds>
7

> <r_i_docking_score>
-8.64719960838835

> <r_i_glide_ligand_efficiency>
-0.308828557442441

> <r_i_glide_ligand_efficiency_sa>
-0.937785390688355

> <r_i_glide_ligand_efficiency_ln>
-1.99602756242887

> <r_i_glide_gscore>
-8.64719960838835

> <r_i_glide_lipo>
-6.124353341156

> <r_i_glide_hbond>
-0.176272491326557

> <r_i_glide_metal>
0

> <r_i_glide_rewards>
-1.77984055137222

> <r_i_glide_evdw>
-24.6085300445557

> <r_i_glide_ecoul>
-1.19937181472778

> <r_i_glide_erotb>
0.843599049903382

> <r_i_glide_esite>
0

> <r_i_glide_emodel>
-23.0820404832581

> <r_i_glide_energy>
-25.8079018592834

> <r_i_glide_einternal>
10.9857454299927

> <i_i_glide_confnum>
130

> <i_i_glide_posenum>
244

> <r_i_glide_eff_state_penalty>
0

> <r_glide_shape_similarity>
0.780947029590607

> <s_m_subgroup_title>
glide-dock_SP_redock_1080_lib1

> <s_m_subgroupid>
glide-dock_SP_redock_1080_lib1

> <b_m_subgroup_collapsed>
0

$$$$
