45
                    3D
 Schrodinger Suite 2021-2.
 48 51  0  0  1  0            999 V2000
    3.9018  -49.6211    6.5848 O   0  0  0  0  0  0
    2.9955  -48.7558    6.5658 C   0  0  0  0  0  0
    3.2442  -47.5404    6.7530 O   0  5  0  0  0  0
    1.5890  -49.1907    6.3499 C   0  0  0  0  0  0
   -0.1064  -50.7428    6.4744 C   0  0  0  0  0  0
   -0.9401  -51.8571    6.7259 C   0  0  0  0  0  0
   -2.3301  -51.7591    6.4885 C   0  0  0  0  0  0
   -2.8646  -50.5772    5.9366 C   0  0  0  0  0  0
   -2.0112  -49.4969    5.6313 C   0  0  0  0  0  0
   -0.6304  -49.5143    5.9701 C   0  0  0  0  0  0
    0.4372  -48.5363    5.9512 C   0  0  0  0  0  0
    0.2556  -47.0821    5.6114 C   0  0  0  0  0  0
   -0.7259  -46.3724    6.5825 C   0  0  0  0  0  0
   -2.2055  -46.2606    6.1374 C   0  0  0  0  0  0
   -2.8440  -45.1263    6.6980 O   0  0  0  0  0  0
   -3.8777  -45.4134    7.5519 C   0  0  0  0  0  0
   -5.9836  -45.8493    9.3871 C   0  0  0  0  0  0
   -4.7564  -46.5270    9.5494 C   0  0  0  0  0  0
   -3.6976  -46.2899    8.6486 C   0  0  0  0  0  0
   -0.5184  -52.7704    7.1178 H   0  0  0  0  0  0
   -2.9776  -52.5991    6.6959 H   0  0  0  0  0  0
   -3.9176  -50.5170    5.7006 H   0  0  0  0  0  0
   -2.4269  -48.6525    5.1125 H   0  0  0  0  0  0
    1.2125  -46.5613    5.6221 H   0  0  0  0  0  0
   -0.1069  -46.9963    4.5885 H   0  0  0  0  0  0
   -0.7405  -46.8383    7.5504 H   0  0  0  0  0  0
   -0.3036  -45.4059    6.7725 H   0  0  0  0  0  0
   -2.3363  -46.2072    5.0618 H   0  0  0  0  0  0
   -2.7613  -47.1503    6.4291 H   0  0  0  0  0  0
   -2.7476  -46.7760    8.8149 H   0  0  0  0  0  0
   -6.1808  -45.0060    8.2648 C   0  0  0  0  0  0
   -5.1400  -44.8102    7.3212 C   0  0  0  0  0  0
   -5.3335  -43.9937    6.0319 C   0  0  0  0  0  0
   -6.7925  -43.6093    5.6882 C   0  0  0  0  0  0
   -7.8666  -44.3614    6.5056 C   0  0  0  0  0  0
   -7.5318  -44.3659    8.0116 C   0  0  0  0  0  0
   -4.6118  -47.2236   10.3555 H   0  0  0  0  0  0
   -6.7883  -46.0212   10.0881 H   0  0  0  0  0  0
   -4.7284  -43.0895    6.0736 H   0  0  0  0  0  0
   -4.9302  -44.5815    5.2058 H   0  0  0  0  0  0
   -6.9703  -43.7361    4.6211 H   0  0  0  0  0  0
   -6.9315  -42.5479    5.8742 H   0  0  0  0  0  0
   -7.9334  -45.3874    6.1484 H   0  0  0  0  0  0
   -8.8395  -43.8973    6.3433 H   0  0  0  0  0  0
   -8.3049  -44.8734    8.5886 H   0  0  0  0  0  0
   -7.4630  -43.3377    8.3511 H   0  0  0  0  0  0
    1.2605  -50.5234    6.6129 N   0  0  0  0  0  0
    1.9675  -51.1823    6.9222 H   0  0  0  0  0  0
  1  2  2  0  0  0
  2  3  1  0  0  0
  2  4  1  0  0  0
  4 11  2  0  0  0
  4 47  1  0  0  0
  5  6  1  0  0  0
  5 10  2  0  0  0
  5 47  1  0  0  0
  6  7  2  0  0  0
  6 20  1  0  0  0
  7  8  1  0  0  0
  7 21  1  0  0  0
  8  9  2  0  0  0
  8 22  1  0  0  0
  9 10  1  0  0  0
  9 23  1  0  0  0
 10 11  1  0  0  0
 11 12  1  0  0  0
 12 24  1  0  0  0
 12 25  1  0  0  0
 12 13  1  0  0  0
 13 14  1  0  0  0
 13 26  1  0  0  0
 13 27  1  0  0  0
 14 15  1  0  0  0
 14 28  1  0  0  0
 14 29  1  0  0  0
 15 16  1  0  0  0
 16 19  2  0  0  0
 16 32  1  0  0  0
 17 18  2  0  0  0
 17 31  1  0  0  0
 17 38  1  0  0  0
 18 19  1  0  0  0
 18 37  1  0  0  0
 19 30  1  0  0  0
 31 32  2  0  0  0
 31 36  1  0  0  0
 32 33  1  0  0  0
 33 34  1  0  0  0
 33 39  1  0  0  0
 33 40  1  0  0  0
 34 35  1  0  0  0
 34 41  1  0  0  0
 34 42  1  0  0  0
 35 36  1  0  0  0
 35 43  1  0  0  0
 35 44  1  0  0  0
 36 45  1  0  0  0
 36 46  1  0  0  0
 47 48  1  0  0  0
M  CHG  1   3  -1
M  END
> <s_m_entry_id>
76

> <s_m_entry_name>
MCL1_45.1

> <r_m_Molecular_weight>
348.42554

> <s_m_Source_Path>
C:\Users\yujiethinkpad\Desktop\05A\MCL1\original

> <s_m_Source_File>
MCL1_45.sdf

> <r_user_dG.exp>
-8.95356461676206

> <s_fepmapper_entryid>
39

> <i_fepmapper_bias>
0

> <i_fepmapper_affinity>
1

> <r_fepmapper_exp_dG>
-8.95356461676

> <i_fepmapper_unit>
1

> <i_m_Source_File_Index>
1

> <s_m_job_name>
glide-dock_SP_redock_1080

> <s_i_glide_gridfile>
glide-grid_MCL1

> <i_i_glide_lignum>
30

> <i_i_glide_rotatable_bonds>
6

> <r_i_docking_score>
-8.97263473355421

> <r_i_glide_ligand_efficiency>
-0.345101335905931

> <r_i_glide_ligand_efficiency_sa>
-1.02236134971314

> <r_i_glide_ligand_efficiency_ln>
-2.10719382555928

> <r_i_glide_gscore>
-8.97263473355421

> <r_i_glide_lipo>
-5.51831934031268

> <r_i_glide_hbond>
-0.2

> <r_i_glide_metal>
0

> <r_i_glide_rewards>
-1.93353422727273

> <r_i_glide_evdw>
-30.6250228881836

> <r_i_glide_ecoul>
-2.70847344398499

> <r_i_glide_erotb>
0.627262239314276

> <r_i_glide_esite>
-0.0105212442761561

> <r_i_glide_emodel>
-41.6242146669044

> <r_i_glide_energy>
-33.3334963321686

> <r_i_glide_einternal>
5.60157108306885

> <i_i_glide_confnum>
9

> <i_i_glide_posenum>
4

> <r_i_glide_eff_state_penalty>
0

> <r_glide_shape_similarity>
0.873592615127563

> <s_m_subgroup_title>
glide-dock_SP_redock_1080_lib1

> <s_m_subgroupid>
glide-dock_SP_redock_1080_lib1

> <b_m_subgroup_collapsed>
0

$$$$
