46
                    3D
 Schrodinger Suite 2021-2.
 45 48  0  0  1  0            999 V2000
    3.2591  -47.6344    6.7509 O   0  0  0  0  0  0
    3.0478  -48.8537    6.6033 C   0  0  0  0  0  0
    3.9353  -49.7423    6.6964 O   0  5  0  0  0  0
    1.6489  -49.2575    6.3689 C   0  0  0  0  0  0
   -0.1587  -50.6804    6.4448 C   0  0  0  0  0  0
   -1.0965  -51.7363    6.6116 C   0  0  0  0  0  0
   -2.4726  -51.4896    6.3803 C   0  0  0  0  0  0
   -2.9078  -50.2039    5.9757 C   0  0  0  0  0  0
   -1.9658  -49.1619    5.7796 C   0  0  0  0  0  0
   -0.5818  -49.3685    6.0272 C   0  0  0  0  0  0
    0.5712  -48.5148    5.9508 C   0  0  0  0  0  0
    0.5769  -47.0802    5.5025 C   0  0  0  0  0  0
    0.4898  -46.0817    6.6873 C   0  0  0  0  0  0
   -0.8907  -46.0558    7.3854 C   0  0  0  0  0  0
   -1.8907  -45.8063    6.4069 O   0  0  0  0  0  0
   -3.1380  -45.4746    6.8869 C   0  0  0  0  0  0
   -5.2700  -44.2270    6.5127 C   0  0  0  0  0  0
   -3.9567  -44.6057    6.0945 C   0  0  0  0  0  0
   -0.7565  -52.7126    6.9410 H   0  0  0  0  0  0
   -3.1900  -52.2914    6.5170 H   0  0  0  0  0  0
   -3.9558  -50.0292    5.7811 H   0  0  0  0  0  0
   -2.3107  -48.1927    5.4402 H   0  0  0  0  0  0
    1.4914  -46.8828    4.9500 H   0  0  0  0  0  0
   -0.2342  -46.9231    4.7950 H   0  0  0  0  0  0
    1.2500  -46.2978    7.4254 H   0  0  0  0  0  0
    0.7029  -45.0724    6.3219 H   0  0  0  0  0  0
   -1.1399  -47.0041    7.8150 H   0  0  0  0  0  0
   -0.8939  -45.3149    8.1819 H   0  0  0  0  0  0
   -3.5745  -44.2084    5.1634 H   0  0  0  0  0  0
   -3.6265  -46.0065    8.0998 C   0  0  0  0  0  0
   -5.8876  -43.5534    5.9383 H   0  0  0  0  0  0
   -3.0461  -46.6612    8.7284 H   0  0  0  0  0  0
    1.2241  -50.5671    6.6119 N   0  0  0  0  0  0
   -6.7468  -45.0240    9.8825 C   0  0  0  0  0  0
   -5.5619  -46.0343    9.8201 C   0  0  0  0  0  0
   -4.9214  -45.6605    8.5090 C   0  0  0  0  0  0
   -5.7353  -44.7973    7.7300 C   0  0  0  0  0  0
   -7.0574  -44.5618    8.4216 C   0  0  0  0  0  0
   -7.3898  -43.5266    8.3423 H   0  0  0  0  0  0
   -7.8199  -45.2017    7.9787 H   0  0  0  0  0  0
   -6.3405  -44.1684   10.4249 H   0  0  0  0  0  0
   -7.5872  -45.3689   10.4615 H   0  0  0  0  0  0
   -5.9245  -47.0621    9.7754 H   0  0  0  0  0  0
   -4.8713  -45.8979   10.6571 H   0  0  0  0  0  0
    1.8671  -51.2843    6.9349 H   0  0  0  0  0  0
  1  2  2  0  0  0
  2  3  1  0  0  0
  2  4  1  0  0  0
  4 11  2  0  0  0
  4 33  1  0  0  0
  5  6  1  0  0  0
  5 10  2  0  0  0
  5 33  1  0  0  0
  6  7  2  0  0  0
  6 19  1  0  0  0
  7  8  1  0  0  0
  7 20  1  0  0  0
  8  9  2  0  0  0
  8 21  1  0  0  0
  9 10  1  0  0  0
  9 22  1  0  0  0
 10 11  1  0  0  0
 11 12  1  0  0  0
 12 23  1  0  0  0
 12 24  1  0  0  0
 12 13  1  0  0  0
 13 14  1  0  0  0
 13 25  1  0  0  0
 13 26  1  0  0  0
 14 15  1  0  0  0
 14 27  1  0  0  0
 14 28  1  0  0  0
 15 16  1  0  0  0
 16 18  2  0  0  0
 16 30  1  0  0  0
 17 18  1  0  0  0
 17 31  1  0  0  0
 17 37  2  0  0  0
 18 29  1  0  0  0
 30 32  1  0  0  0
 30 36  2  0  0  0
 33 45  1  0  0  0
 34 35  1  0  0  0
 34 38  1  0  0  0
 34 41  1  0  0  0
 34 42  1  0  0  0
 35 36  1  0  0  0
 35 43  1  0  0  0
 35 44  1  0  0  0
 36 37  1  0  0  0
 37 38  1  0  0  0
 38 39  1  0  0  0
 38 40  1  0  0  0
M  CHG  1   3  -1
M  END
> <s_m_entry_id>
86

> <s_m_entry_name>
MCL1_46.1

> <r_m_Molecular_weight>
334.39845

> <s_m_Source_Path>
C:\Users\yujiethinkpad\Desktop\05A\MCL1\original

> <s_m_Source_File>
MCL1_46.sdf

> <r_user_dG.exp>
-7.60113429727595

> <s_fepmapper_entryid>
5

> <i_fepmapper_bias>
0

> <i_fepmapper_affinity>
1

> <r_fepmapper_exp_dG>
-7.60113429728

> <i_fepmapper_unit>
1

> <i_m_Source_File_Index>
1

> <s_m_job_name>
glide-dock_SP_redock_1080

> <s_i_glide_gridfile>
glide-grid_MCL1

> <i_i_glide_lignum>
31

> <i_i_glide_rotatable_bonds>
6

> <r_i_docking_score>
-8.41552141013611

> <r_i_glide_ligand_efficiency>
-0.336620856405445

> <r_i_glide_ligand_efficiency_sa>
-0.984285354125828

> <r_i_glide_ligand_efficiency_ln>
-1.99473076702821

> <r_i_glide_gscore>
-8.41552141013611

> <r_i_glide_lipo>
-5.10422345362435

> <r_i_glide_hbond>
-0.2

> <r_i_glide_metal>
0

> <r_i_glide_rewards>
-1.86847834553977

> <r_i_glide_evdw>
-29.3120861053467

> <r_i_glide_ecoul>
-2.92698979377747

> <r_i_glide_erotb>
0.674678162084637

> <r_i_glide_esite>
-0.0128449987226721

> <r_i_glide_emodel>
-46.6019286047099

> <r_i_glide_energy>
-32.2390758991241

> <r_i_glide_einternal>
4.15051555633545

> <i_i_glide_confnum>
43

> <i_i_glide_posenum>
283

> <r_i_glide_eff_state_penalty>
0

> <r_glide_shape_similarity>
0.936497092247009

> <s_m_subgroup_title>
glide-dock_SP_redock_1080_lib1

> <s_m_subgroupid>
glide-dock_SP_redock_1080_lib1

> <b_m_subgroup_collapsed>
0

$$$$
