52
                    3D
 Schrodinger Suite 2021-2.
 41 43  0  0  1  0            999 V2000
    3.2597  -47.5767    6.7525 O   0  0  0  0  0  0
    3.0626  -48.7953    6.5553 C   0  0  0  0  0  0
    3.9759  -49.6467    6.5852 O   0  5  0  0  0  0
    1.6857  -49.2296    6.3369 C   0  0  0  0  0  0
   -0.0100  -50.7224    6.4505 C   0  0  0  0  0  0
   -0.8240  -51.8263    6.6986 C   0  0  0  0  0  0
   -2.2085  -51.6835    6.5987 C   0  0  0  0  0  0
   -2.7874  -50.4791    6.1405 C   0  0  0  0  0  0
   -1.9447  -49.3854    5.8424 C   0  0  0  0  0  0
   -0.5393  -49.4659    6.0393 C   0  0  0  0  0  0
    0.5652  -48.5479    5.9429 C   0  0  0  0  0  0
    0.5252  -47.1236    5.4895 C   0  0  0  0  0  0
    0.3864  -46.1371    6.6579 C   0  0  0  0  0  0
   -0.9945  -46.2049    7.3149 C   0  0  0  0  0  0
   -1.9676  -45.8062    6.3819 O   0  0  0  0  0  0
   -3.2038  -45.4505    6.8573 C   0  0  0  0  0  0
   -3.9708  -44.6054    6.0273 C   0  0  0  0  0  0
   -5.2882  -44.2064    6.3768 C   0  0  0  0  0  0
   -6.1161  -43.4099    5.3818 C   0  0  0  0  0  0
   -5.8545  -44.7637    7.5610 C   0  0  0  0  0  0
   -7.5280  -44.5653    7.9514 Cl  0  0  0  0  0  0
   -5.0831  -45.5963    8.4018 C   0  0  0  0  0  0
   -3.7635  -45.9436    8.0570 C   0  0  0  0  0  0
   -0.3891  -52.7522    7.0443 H   0  0  0  0  0  0
   -3.1442  -53.0074    7.1500 Cl  0  0  0  0  0  0
   -3.8602  -50.3868    6.0508 H   0  0  0  0  0  0
   -2.3800  -48.4518    5.5177 H   0  0  0  0  0  0
   -0.2890  -46.9893    4.7786 H   0  0  0  0  0  0
    1.4310  -46.8893    4.9280 H   0  0  0  0  0  0
    0.5667  -45.1268    6.2955 H   0  0  0  0  0  0
    1.1591  -46.3170    7.4034 H   0  0  0  0  0  0
   -1.0210  -45.5972    8.2217 H   0  0  0  0  0  0
   -1.2404  -47.2338    7.5522 H   0  0  0  0  0  0
   -3.5449  -44.2685    5.0955 H   0  0  0  0  0  0
   -5.7809  -43.6109    4.3625 H   0  0  0  0  0  0
   -6.0191  -42.3378    5.5512 H   0  0  0  0  0  0
   -7.1726  -43.6747    5.4257 H   0  0  0  0  0  0
   -3.2151  -46.6167    8.6987 H   0  0  0  0  0  0
   -5.5256  -46.0138    9.2946 H   0  0  0  0  0  0
    1.3510  -50.5494    6.5624 N   0  0  0  0  0  0
    2.0479  -51.2264    6.8484 H   0  0  0  0  0  0
  1  2  2  0  0  0
  2  3  1  0  0  0
  2  4  1  0  0  0
  4 11  2  0  0  0
  4 40  1  0  0  0
  5  6  1  0  0  0
  5 10  2  0  0  0
  5 40  1  0  0  0
  6  7  2  0  0  0
  6 24  1  0  0  0
  7  8  1  0  0  0
  7 25  1  0  0  0
  8  9  2  0  0  0
  8 26  1  0  0  0
  9 10  1  0  0  0
  9 27  1  0  0  0
 10 11  1  0  0  0
 11 12  1  0  0  0
 12 28  1  0  0  0
 12 29  1  0  0  0
 12 13  1  0  0  0
 13 14  1  0  0  0
 13 30  1  0  0  0
 13 31  1  0  0  0
 14 15  1  0  0  0
 14 32  1  0  0  0
 14 33  1  0  0  0
 15 16  1  0  0  0
 16 17  1  0  0  0
 16 23  2  0  0  0
 17 18  2  0  0  0
 17 34  1  0  0  0
 18 19  1  0  0  0
 18 20  1  0  0  0
 19 35  1  0  0  0
 19 36  1  0  0  0
 19 37  1  0  0  0
 20 21  1  0  0  0
 20 22  2  0  0  0
 22 23  1  0  0  0
 22 39  1  0  0  0
 23 38  1  0  0  0
 40 41  1  0  0  0
M  CHG  1   3  -1
M  END
> <s_m_entry_id>
100

> <s_m_entry_name>
MCL1_52.1

> <r_m_Molecular_weight>
377.25027

> <s_m_Source_Path>
C:\Users\yujiethinkpad\Desktop\05A\MCL1\original

> <s_m_Source_File>
MCL1_52.sdf

> <r_user_dG.exp>
-9.22585200324184

> <s_fepmapper_entryid>
8

> <i_fepmapper_bias>
0

> <i_fepmapper_affinity>
1

> <r_fepmapper_exp_dG>
-9.22585200324

> <i_fepmapper_unit>
1

> <i_m_Source_File_Index>
1

> <s_m_job_name>
glide-dock_SP_redock_1080

> <s_i_glide_gridfile>
glide-grid_MCL1

> <i_i_glide_lignum>
37

> <i_i_glide_rotatable_bonds>
6

> <r_i_docking_score>
-7.82725826940756

> <r_i_glide_ligand_efficiency>
-0.313090330776302

> <r_i_glide_ligand_efficiency_sa>
-0.915481679870567

> <r_i_glide_ligand_efficiency_ln>
-1.85529477385177

> <r_i_glide_gscore>
-7.82725826940756

> <r_i_glide_lipo>
-4.74510058101557

> <r_i_glide_hbond>
-0.2

> <r_i_glide_metal>
0

> <r_i_glide_rewards>
-1.59960442875342

> <r_i_glide_evdw>
-30.873083114624

> <r_i_glide_ecoul>
-2.69343519210815

> <r_i_glide_erotb>
0.680424897087132

> <r_i_glide_esite>
-0.0153087221782691

> <r_i_glide_emodel>
-43.9240077407905

> <r_i_glide_energy>
-33.5665183067322

> <r_i_glide_einternal>
4.98865652084351

> <i_i_glide_confnum>
276

> <i_i_glide_posenum>
136

> <r_i_glide_eff_state_penalty>
0

> <r_glide_shape_similarity>
0.916595458984375

> <s_m_subgroup_title>
glide-dock_SP_redock_1080_lib1

> <s_m_subgroupid>
glide-dock_SP_redock_1080_lib1

> <b_m_subgroup_collapsed>
0

$$$$
