53
                    3D
 Schrodinger Suite 2021-2.
 44 46  0  0  1  0            999 V2000
    3.2560  -47.4934    6.7508 O   0  0  0  0  0  0
    3.1115  -48.7181    6.5390 C   0  0  0  0  0  0
    4.0569  -49.5517    6.5586 O   0  5  0  0  0  0
    1.7310  -49.1742    6.3211 C   0  0  0  0  0  0
    0.0314  -50.6762    6.4339 C   0  0  0  0  0  0
   -0.7895  -51.7834    6.6744 C   0  0  0  0  0  0
   -2.1869  -51.6321    6.5886 C   0  0  0  0  0  0
   -2.7514  -50.4030    6.1419 C   0  0  0  0  0  0
   -1.9120  -49.3022    5.8567 C   0  0  0  0  0  0
   -0.5039  -49.4045    6.0466 C   0  0  0  0  0  0
    0.5973  -48.4808    5.9502 C   0  0  0  0  0  0
    0.5359  -47.0330    5.5266 C   0  0  0  0  0  0
    0.4483  -46.0522    6.7127 C   0  0  0  0  0  0
   -0.9184  -46.0478    7.4215 C   0  0  0  0  0  0
   -1.9422  -45.8058    6.4636 O   0  0  0  0  0  0
   -3.1741  -45.4084    6.9312 C   0  0  0  0  0  0
   -3.7232  -45.8496    8.1600 C   0  0  0  0  0  0
   -5.0523  -45.4920    8.5222 C   0  0  0  0  0  0
   -5.5875  -46.0210    9.8501 C   0  0  0  0  0  0
   -5.8477  -44.6908    7.6380 C   0  0  0  0  0  0
   -7.5238  -44.4382    7.9853 Cl  0  0  0  0  0  0
   -5.2918  -44.2187    6.4088 C   0  0  0  0  0  0
   -6.1361  -43.5189    5.3585 C   0  0  0  0  0  0
   -3.9596  -44.6075    6.0647 C   0  0  0  0  0  0
   -0.3592  -52.7216    6.9750 H   0  0  0  0  0  0
   -3.1403  -52.9577    7.1212 Cl  0  0  0  0  0  0
   -3.8301  -50.3081    6.0521 H   0  0  0  0  0  0
   -2.3440  -48.3648    5.5566 H   0  0  0  0  0  0
   -0.3057  -46.8799    4.8479 H   0  0  0  0  0  0
    1.4171  -46.7912    4.9423 H   0  0  0  0  0  0
    0.6386  -45.0453    6.3527 H   0  0  0  0  0  0
    1.2311  -46.2242    7.4470 H   0  0  0  0  0  0
   -0.9388  -45.2851    8.2099 H   0  0  0  0  0  0
   -1.1425  -47.0045    7.8616 H   0  0  0  0  0  0
   -3.1463  -46.4752    8.8202 H   0  0  0  0  0  0
   -4.8753  -46.6942   10.3393 H   0  0  0  0  0  0
   -6.5145  -46.5702    9.7031 H   0  0  0  0  0  0
   -5.7744  -45.1921   10.5314 H   0  0  0  0  0  0
   -5.6383  -43.5589    4.3840 H   0  0  0  0  0  0
   -7.1010  -44.0207    5.2336 H   0  0  0  0  0  0
   -6.3257  -42.4559    5.5503 H   0  0  0  0  0  0
   -3.5436  -44.3074    5.1189 H   0  0  0  0  0  0
    1.4043  -50.5029    6.5255 N   0  0  0  0  0  0
    2.1098  -51.1904    6.7950 H   0  0  0  0  0  0
  1  2  2  0  0  0
  2  3  1  0  0  0
  2  4  1  0  0  0
  4 11  2  0  0  0
  4 43  1  0  0  0
  5  6  1  0  0  0
  5 10  2  0  0  0
  5 43  1  0  0  0
  6  7  2  0  0  0
  6 25  1  0  0  0
  7  8  1  0  0  0
  7 26  1  0  0  0
  8  9  2  0  0  0
  8 27  1  0  0  0
  9 10  1  0  0  0
  9 28  1  0  0  0
 10 11  1  0  0  0
 11 12  1  0  0  0
 12 29  1  0  0  0
 12 30  1  0  0  0
 12 13  1  0  0  0
 13 14  1  0  0  0
 13 31  1  0  0  0
 13 32  1  0  0  0
 14 15  1  0  0  0
 14 33  1  0  0  0
 14 34  1  0  0  0
 15 16  1  0  0  0
 16 17  1  0  0  0
 16 24  2  0  0  0
 17 18  2  0  0  0
 17 35  1  0  0  0
 18 19  1  0  0  0
 18 20  1  0  0  0
 19 36  1  0  0  0
 19 37  1  0  0  0
 19 38  1  0  0  0
 20 21  1  0  0  0
 20 22  2  0  0  0
 22 23  1  0  0  0
 22 24  1  0  0  0
 23 39  1  0  0  0
 23 40  1  0  0  0
 23 41  1  0  0  0
 24 42  1  0  0  0
 43 44  1  0  0  0
M  CHG  1   3  -1
M  END
> <s_m_entry_id>
95

> <s_m_entry_name>
MCL1_53.1

> <r_m_Molecular_weight>
391.27736

> <s_m_Source_Path>
C:\Users\yujiethinkpad\Desktop\05A\MCL1\original

> <s_m_Source_File>
MCL1_53.sdf

> <r_user_dG.exp>
-9.96486893166623

> <s_fepmapper_entryid>
36

> <i_fepmapper_bias>
0

> <i_fepmapper_affinity>
1

> <r_fepmapper_exp_dG>
-9.96486893167

> <i_fepmapper_unit>
1

> <i_m_Source_File_Index>
1

> <s_m_job_name>
glide-dock_SP_redock_1080

> <s_i_glide_gridfile>
glide-grid_MCL1

> <i_i_glide_lignum>
38

> <i_i_glide_rotatable_bonds>
6

> <r_i_docking_score>
-8.11231280954646

> <r_i_glide_ligand_efficiency>
-0.312012031136402

> <r_i_glide_ligand_efficiency_sa>
-0.924334414533533

> <r_i_glide_ligand_efficiency_ln>
-1.90515004465254

> <r_i_glide_gscore>
-8.11231280954646

> <r_i_glide_lipo>
-5.08265812743714

> <r_i_glide_hbond>
-0.2

> <r_i_glide_metal>
0

> <r_i_glide_rewards>
-1.48989471358617

> <r_i_glide_evdw>
-30.6530075073242

> <r_i_glide_ecoul>
-2.81187796592712

> <r_i_glide_erotb>
0.637301348502223

> <r_i_glide_esite>
-0.0226292467700915

> <r_i_glide_emodel>
-44.4351438379181

> <r_i_glide_energy>
-33.4648854732513

> <r_i_glide_einternal>
7.1640739440918

> <i_i_glide_confnum>
258

> <i_i_glide_posenum>
187

> <r_i_glide_eff_state_penalty>
0

> <r_glide_shape_similarity>
0.921488583087921

> <s_m_subgroup_title>
glide-dock_SP_redock_1080_lib1

> <s_m_subgroupid>
glide-dock_SP_redock_1080_lib1

> <b_m_subgroup_collapsed>
0

$$$$
