64
                    3D
 Schrodinger Suite 2021-2.
 43 46  0  0  1  0            999 V2000
    3.2599  -47.4782    6.9311 O   0  0  0  0  0  0
    3.1641  -48.6772    6.5757 C   0  0  0  0  0  0
    4.1623  -49.4163    6.4088 O   0  5  0  0  0  0
    1.8096  -49.2037    6.3508 C   0  0  0  0  0  0
    1.5895  -50.8909    6.7157 S   0  0  0  0  0  0
   -0.1275  -50.7319    6.4465 C   0  0  0  0  0  0
   -1.0858  -51.7218    6.6475 C   0  0  0  0  0  0
   -2.4278  -51.4120    6.4268 C   0  0  0  0  0  0
   -2.8348  -50.1642    5.9223 C   0  0  0  0  0  0
   -1.8478  -49.2043    5.6461 C   0  0  0  0  0  0
   -0.4800  -49.4222    5.9781 C   0  0  0  0  0  0
    0.6697  -48.5389    5.9472 C   0  0  0  0  0  0
    0.6473  -47.0951    5.5005 C   0  0  0  0  0  0
    0.1945  -46.1261    6.6096 C   0  0  0  0  0  0
   -1.3218  -46.3379    6.8500 C   0  0  0  0  0  0
   -1.9815  -45.4177    7.6806 O   0  0  0  0  0  0
   -3.3033  -45.7436    7.9339 C   0  0  0  0  0  0
   -5.9380  -45.7274    8.9819 C   0  0  0  0  0  0
   -4.9640  -46.5933    9.5291 C   0  0  0  0  0  0
   -3.6436  -46.6014    9.0169 C   0  0  0  0  0  0
   -0.7953  -52.6930    7.0208 H   0  0  0  0  0  0
   -3.5403  -52.6061    6.8434 Cl  0  0  0  0  0  0
   -3.8777  -49.9574    5.7280 H   0  0  0  0  0  0
   -2.1606  -48.2738    5.2055 H   0  0  0  0  0  0
    1.6242  -46.7867    5.1295 H   0  0  0  0  0  0
   -0.0071  -46.9982    4.6363 H   0  0  0  0  0  0
    0.7700  -46.2579    7.5248 H   0  0  0  0  0  0
    0.4575  -45.1229    6.2796 H   0  0  0  0  0  0
   -1.8337  -46.3224    5.8908 H   0  0  0  0  0  0
   -1.4726  -47.3117    7.3085 H   0  0  0  0  0  0
   -2.8767  -47.1684    9.5226 H   0  0  0  0  0  0
   -5.6469  -45.0069    7.7976 C   0  0  0  0  0  0
   -4.3398  -45.0819    7.2199 C   0  0  0  0  0  0
   -4.0907  -44.4947    5.9524 C   0  0  0  0  0  0
   -5.1292  -43.8085    5.2784 C   0  0  0  0  0  0
   -6.4153  -43.7216    5.8597 C   0  0  0  0  0  0
   -6.6705  -44.2879    7.1304 C   0  0  0  0  0  0
   -3.1289  -44.6048    5.4774 H   0  0  0  0  0  0
   -4.9447  -43.3736    4.3073 H   0  0  0  0  0  0
   -7.2064  -43.2081    5.3338 H   0  0  0  0  0  0
   -7.6628  -44.2262    7.5541 H   0  0  0  0  0  0
   -5.2224  -47.2364   10.3501 H   0  0  0  0  0  0
   -6.9323  -45.7035    9.4048 H   0  0  0  0  0  0
  1  2  2  0  0  0
  2  3  1  0  0  0
  2  4  1  0  0  0
  4  5  1  0  0  0
  4 12  2  0  0  0
  5  6  1  0  0  0
  6  7  1  0  0  0
  6 11  2  0  0  0
  7  8  2  0  0  0
  7 21  1  0  0  0
  8  9  1  0  0  0
  8 22  1  0  0  0
  9 10  2  0  0  0
  9 23  1  0  0  0
 10 11  1  0  0  0
 10 24  1  0  0  0
 11 12  1  0  0  0
 12 13  1  0  0  0
 13 25  1  0  0  0
 13 26  1  0  0  0
 13 14  1  0  0  0
 14 15  1  0  0  0
 14 27  1  0  0  0
 14 28  1  0  0  0
 15 16  1  0  0  0
 15 29  1  0  0  0
 15 30  1  0  0  0
 16 17  1  0  0  0
 17 20  2  0  0  0
 17 33  1  0  0  0
 18 19  2  0  0  0
 18 32  1  0  0  0
 18 43  1  0  0  0
 19 20  1  0  0  0
 19 42  1  0  0  0
 20 31  1  0  0  0
 32 33  2  0  0  0
 32 37  1  0  0  0
 33 34  1  0  0  0
 34 35  2  0  0  0
 34 38  1  0  0  0
 35 36  1  0  0  0
 35 39  1  0  0  0
 36 37  2  0  0  0
 36 40  1  0  0  0
 37 41  1  0  0  0
M  CHG  1   3  -1
M  END
> <s_m_entry_id>
82

> <s_m_entry_name>
MCL1_64.1

> <r_m_Molecular_weight>
395.88802

> <s_m_Source_Path>
C:\Users\yujiethinkpad\Desktop\05A\MCL1\original

> <s_m_Source_File>
MCL1_64.sdf

> <r_user_dG.exp>
-9.4997930107542

> <s_fepmapper_entryid>
27

> <i_fepmapper_bias>
0

> <i_fepmapper_affinity>
1

> <r_fepmapper_exp_dG>
-9.49979301075

> <i_fepmapper_unit>
1

> <i_m_Source_File_Index>
1

> <s_m_job_name>
glide-dock_SP_redock_1080

> <s_i_glide_gridfile>
glide-grid_MCL1

> <i_i_glide_lignum>
5

> <i_i_glide_rotatable_bonds>
6

> <r_i_docking_score>
-8.59884251204224

> <r_i_glide_ligand_efficiency>
-0.318475648594157

> <r_i_glide_ligand_efficiency_sa>
-0.955426944732828

> <r_i_glide_ligand_efficiency_ln>
-2.00166877380524

> <r_i_glide_gscore>
-8.59884251204224

> <r_i_glide_lipo>
-5.49172141666532

> <r_i_glide_hbond>
-0.2

> <r_i_glide_metal>
0

> <r_i_glide_rewards>
-1.60991359090909

> <r_i_glide_evdw>
-28.0112400054932

> <r_i_glide_ecoul>
-2.43715214729309

> <r_i_glide_erotb>
0.499214537276342

> <r_i_glide_esite>
-0.0302872193755564

> <r_i_glide_emodel>
-35.6882997017126

> <r_i_glide_energy>
-30.4483921527863

> <r_i_glide_einternal>
5.51402950286865

> <i_i_glide_confnum>
32

> <i_i_glide_posenum>
336

> <r_i_glide_eff_state_penalty>
0

> <r_glide_shape_similarity>
0.878869593143463

> <s_m_subgroup_title>
glide-dock_SP_redock_1080_lib1

> <s_m_subgroupid>
glide-dock_SP_redock_1080_lib1

> <b_m_subgroup_collapsed>
0

$$$$
