18624-1
                    3D
 Schrodinger Suite 2021-2.
 38 39  0  0  1  0            999 V2000
   24.2695   12.3507   30.2017 C   0  0  0  0  0  0
   23.5228   11.0407   30.4507 C   0  0  0  0  0  0
   22.3884   11.2979   31.2692 O   0  0  0  0  0  0
   21.5863   10.2371   31.6463 C   0  0  0  0  0  0
   21.9001    9.0076   31.1800 N   0  0  0  0  0  0
   21.1072    7.9486   31.4347 C   0  0  0  0  0  0
   19.9351    8.1073   32.2002 C   0  0  0  0  0  0
   19.6113    9.3695   32.7090 C   0  0  0  0  0  0
   18.4388    9.4994   33.4346 N   0  0  0  0  0  0
   20.4428   10.4641   32.4287 C   0  0  0  0  0  0
   20.1018   11.7974   32.8700 C   0  0  0  0  0  0
   19.8227   12.8550   33.2207 N   0  0  0  0  0  0
   21.5219    6.6957   30.9022 N   0  0  0  0  0  0
   21.0533    5.4485   31.0871 C   0  0  0  0  0  0
   20.0109    5.2001   31.6682 O   0  0  0  0  0  0
   21.8352    4.2746   30.4809 C   0  0  0  0  0  0
   23.3232    4.3046   30.7949 C   0  0  0  0  0  0
   23.9214    3.3420   31.6327 C   0  0  0  0  0  0
   25.3098    3.3846   31.8624 C   0  0  0  0  0  0
   26.1002    4.3886   31.2740 C   0  0  0  0  0  0
   25.5058    5.3467   30.4437 C   0  0  0  0  0  0
   24.1307    5.2840   30.1891 C   0  0  0  0  0  0
   25.1452   12.1862   29.5733 H   0  0  0  0  0  0
   24.6094   12.7927   31.1384 H   0  0  0  0  0  0
   23.6281   13.0770   29.7013 H   0  0  0  0  0  0
   23.2088   10.6112   29.4980 H   0  0  0  0  0  0
   24.1903   10.3278   30.9391 H   0  0  0  0  0  0
   19.2739    7.2848   32.4176 H   0  0  0  0  0  0
   18.0677   10.4137   33.6551 H   0  0  0  0  0  0
   17.7789    8.7385   33.4897 H   0  0  0  0  0  0
   22.3699    6.7484   30.3668 H   0  0  0  0  0  0
   21.4039    3.3320   30.8263 H   0  0  0  0  0  0
   21.7015    4.2943   29.3976 H   0  0  0  0  0  0
   23.3227    2.5655   32.0872 H   0  0  0  0  0  0
   25.7692    2.6428   32.4992 H   0  0  0  0  0  0
   27.1639    4.4217   31.4607 H   0  0  0  0  0  0
   26.1126    6.1122   29.9822 H   0  0  0  0  0  0
   23.7030    6.0009   29.5048 H   0  0  0  0  0  0
  1  2  1  0  0  0
  1 23  1  0  0  0
  1 24  1  0  0  0
  1 25  1  0  0  0
  2  3  1  0  0  0
  2 26  1  0  0  0
  2 27  1  0  0  0
  3  4  1  0  0  0
  4 10  1  0  0  0
  4  5  2  0  0  0
  5  6  1  0  0  0
  6  7  2  0  0  0
  6 13  1  0  0  0
  7  8  1  0  0  0
  7 28  1  0  0  0
  8  9  1  0  0  0
  8 10  2  0  0  0
  9 29  1  0  0  0
  9 30  1  0  0  0
 10 11  1  0  0  0
 11 12  3  0  0  0
 13 14  1  0  0  0
 13 31  1  0  0  0
 14 15  2  0  0  0
 14 16  1  0  0  0
 16 17  1  0  0  0
 16 32  1  0  0  0
 16 33  1  0  0  0
 17 22  1  0  0  0
 17 18  2  0  0  0
 18 19  1  0  0  0
 18 34  1  0  0  0
 19 20  2  0  0  0
 19 35  1  0  0  0
 20 21  1  0  0  0
 20 36  1  0  0  0
 21 22  2  0  0  0
 21 37  1  0  0  0
 22 38  1  0  0  0
M  END
> <i_m_stars>
2

> <s_m_entry_id>
2971

> <s_m_entry_name>
Jnk1_18624-1.1

> <s_m_Source_Path>
C:\Users\yujiethinkpad\Desktop\05A\JNK1

> <s_m_Source_File>
Jnk1_18624-1.sdf

> <i_m_Source_File_Index>
1

> <s_i_glide_gridfile>
glide-grid_JNK1

> <r_i_docking_score>
-7.76702360675607

> <r_i_glide_ecoul>
-6.45194959640503

> <r_i_glide_einternal>
8.51144886016846

> <r_i_glide_emodel>
-43.2684468298268

> <r_i_glide_energy>
-40.0421290397644

> <r_i_glide_erotb>
0.834467228461277

> <r_i_glide_esite>
0

> <r_i_glide_evdw>
-33.5901794433594

> <r_i_glide_gscore>
-7.76702360675607

> <r_i_glide_hbond>
-0.32

> <r_i_glide_ligand_efficiency>
-0.353046527579822

> <r_i_glide_ligand_efficiency_ln>
-1.89854387856087

> <r_i_glide_ligand_efficiency_sa>
-0.9892502548107

> <r_i_glide_lipo>
-3.34386132341615

> <r_i_glide_metal>
0

> <r_i_glide_rewards>
-2.29032810017248

> <i_i_glide_confnum>
3

> <i_i_glide_lignum>
14

> <i_i_glide_posenum>
70

> <i_i_glide_rotatable_bonds>
6

> <r_i_glide_eff_state_penalty>
0

> <s_m_job_name>
glide-dock_SP_other_4988

> <r_user_dG.exp>
-8.49337

> <r_m_Molecular_weight>
296.33152

> <r_glide_shape_similarity>
0.863776981830597

> <s_m_subgroup_title>
glide-dock_SP_other_4988_lib1

> <s_m_subgroupid>
glide-dock_SP_other_4988_lib1

> <b_m_subgroup_collapsed>
0

$$$$
