18636-1
                    3D
 Schrodinger Suite 2021-2.
 38 39  0  0  1  0            999 V2000
   24.6313   10.7432   30.8745 C   0  0  0  0  0  0
   23.3151   11.2065   30.2649 C   0  0  0  0  0  0
   22.3248   11.3476   31.2695 O   0  0  0  0  0  0
   21.5777   10.2589   31.6626 C   0  0  0  0  0  0
   21.9208    9.0493   31.1963 N   0  0  0  0  0  0
   21.1463    7.9899   31.4541 C   0  0  0  0  0  0
   19.9607    8.1038   32.2088 C   0  0  0  0  0  0
   19.6109    9.3594   32.7167 C   0  0  0  0  0  0
   18.4162    9.4816   33.4104 N   0  0  0  0  0  0
   20.4342   10.4641   32.4432 C   0  0  0  0  0  0
   20.0853   11.7982   32.8743 C   0  0  0  0  0  0
   19.8054   12.8581   33.2210 N   0  0  0  0  0  0
   21.6128    6.7894   30.9131 N   0  0  0  0  0  0
   21.1431    5.5509   30.9412 C   0  0  0  0  0  0
   20.1245    5.1991   31.5244 O   0  0  0  0  0  0
   21.9700    4.5861   30.1056 C   0  0  0  0  0  0
   23.2948    4.2530   30.7638 C   0  0  0  0  0  0
   24.4993    4.9766   30.5632 C   0  0  0  0  0  0
   24.5974    6.5515   29.5115 Br  0  0  0  0  0  0
   25.6909    4.5380   31.1648 C   0  0  0  0  0  0
   25.6748    3.4057   31.9918 C   0  0  0  0  0  0
   24.4800    2.7004   32.1899 C   0  0  0  0  0  0
   24.4117    1.1707   33.2945 Br  0  0  0  0  0  0
   23.3103    3.1100   31.5613 C   0  0  0  0  0  0
   25.4135   10.6938   30.1174 H   0  0  0  0  0  0
   24.5297    9.7489   31.3149 H   0  0  0  0  0  0
   24.9523   11.4243   31.6625 H   0  0  0  0  0  0
   23.4617   12.1914   29.8216 H   0  0  0  0  0  0
   22.9956   10.5531   29.4483 H   0  0  0  0  0  0
   19.3137    7.2548   32.3979 H   0  0  0  0  0  0
   18.0467   10.3878   33.6648 H   0  0  0  0  0  0
   17.7902    8.6976   33.5117 H   0  0  0  0  0  0
   22.4580    6.8939   30.3792 H   0  0  0  0  0  0
   21.3945    3.6709   29.9457 H   0  0  0  0  0  0
   22.1435    5.0104   29.1185 H   0  0  0  0  0  0
   26.6117    5.0843   31.0117 H   0  0  0  0  0  0
   26.5784    3.0704   32.4783 H   0  0  0  0  0  0
   22.4109    2.5234   31.6764 H   0  0  0  0  0  0
  1  2  1  0  0  0
  1 25  1  0  0  0
  1 26  1  0  0  0
  1 27  1  0  0  0
  2  3  1  0  0  0
  2 28  1  0  0  0
  2 29  1  0  0  0
  3  4  1  0  0  0
  4 10  1  0  0  0
  4  5  2  0  0  0
  5  6  1  0  0  0
  6  7  2  0  0  0
  6 13  1  0  0  0
  7  8  1  0  0  0
  7 30  1  0  0  0
  8  9  1  0  0  0
  8 10  2  0  0  0
  9 31  1  0  0  0
  9 32  1  0  0  0
 10 11  1  0  0  0
 11 12  3  0  0  0
 13 14  1  0  0  0
 13 33  1  0  0  0
 14 15  2  0  0  0
 14 16  1  0  0  0
 16 17  1  0  0  0
 16 34  1  0  0  0
 16 35  1  0  0  0
 17 24  1  0  0  0
 17 18  2  0  0  0
 18 19  1  0  0  0
 18 20  1  0  0  0
 20 21  2  0  0  0
 20 36  1  0  0  0
 21 22  1  0  0  0
 21 37  1  0  0  0
 22 23  1  0  0  0
 22 24  2  0  0  0
 24 38  1  0  0  0
M  END
> <i_m_stars>
0

> <s_m_entry_id>
2981

> <s_m_entry_name>
Jnk1_18636-1.1

> <s_m_Source_Path>
C:\Users\yujiethinkpad\Desktop\05A\JNK1

> <s_m_Source_File>
Jnk1_18636-1.sdf

> <i_m_Source_File_Index>
1

> <s_i_glide_gridfile>
glide-grid_JNK1

> <r_i_docking_score>
-7.49082273267024

> <r_i_glide_ecoul>
-5.95668172836304

> <r_i_glide_einternal>
8.53096485137939

> <r_i_glide_emodel>
-50.5271427671427

> <r_i_glide_energy>
-45.6703391075134

> <r_i_glide_erotb>
0.389456225959289

> <r_i_glide_esite>
0

> <r_i_glide_evdw>
-39.7136573791504

> <r_i_glide_gscore>
-7.49082273267024

> <r_i_glide_hbond>
-0.342673055570856

> <r_i_glide_ligand_efficiency>
-0.31211761386126

> <r_i_glide_ligand_efficiency_ln>
-1.79289761138535

> <r_i_glide_ligand_efficiency_sa>
-0.900302987999815

> <r_i_glide_lipo>
-3.45338700672492

> <r_i_glide_metal>
0

> <r_i_glide_rewards>
-1.20503376812178

> <i_i_glide_confnum>
9

> <i_i_glide_lignum>
6

> <i_i_glide_posenum>
231

> <i_i_glide_rotatable_bonds>
6

> <r_i_glide_eff_state_penalty>
0

> <s_m_job_name>
glide-dock_SP_other_4988

> <r_user_dG.exp>
-7.512318

> <r_m_Molecular_weight>
454.13358

> <r_glide_shape_similarity>
0.874782621860504

> <s_m_subgroup_title>
glide-dock_SP_other_4988_lib1

> <s_m_subgroupid>
glide-dock_SP_other_4988_lib1

> <b_m_subgroup_collapsed>
0

$$$$
