18634-1
                    3D
 Schrodinger Suite 2021-2.
 46 47  0  0  1  0            999 V2000
   24.6557   10.7102   30.8520 C   0  0  0  0  0  0
   23.3318   11.1701   30.2586 C   0  0  0  0  0  0
   22.3498   11.3139   31.2687 O   0  0  0  0  0  0
   21.5784   10.2358   31.6506 C   0  0  0  0  0  0
   21.8995    9.0099   31.1801 N   0  0  0  0  0  0
   21.1118    7.9472   31.4385 C   0  0  0  0  0  0
   19.9394    8.1040   32.2046 C   0  0  0  0  0  0
   19.6086    9.3649   32.7131 C   0  0  0  0  0  0
   18.4120    9.4948   33.4085 N   0  0  0  0  0  0
   20.4395   10.4597   32.4378 C   0  0  0  0  0  0
   20.0943   11.7951   32.8700 C   0  0  0  0  0  0
   19.8131   12.8557   33.2129 N   0  0  0  0  0  0
   21.5231    6.6931   30.9035 N   0  0  0  0  0  0
   21.0544    5.4436   31.0875 C   0  0  0  0  0  0
   20.0109    5.1992   31.6689 O   0  0  0  0  0  0
   21.8281    4.2548   30.4854 C   0  0  0  0  0  0
   23.3198    4.2676   30.8063 C   0  0  0  0  0  0
   23.9526    3.2959   31.6179 C   0  0  0  0  0  0
   23.2040    2.2586   32.0968 O   0  0  0  0  0  0
   23.7915    1.3838   33.0449 C   0  0  0  0  0  0
   25.3419    3.3827   31.8523 C   0  0  0  0  0  0
   26.1019    4.4006   31.2703 C   0  0  0  0  0  0
   25.4748    5.3584   30.4500 C   0  0  0  0  0  0
   24.1030    5.2641   30.2106 C   0  0  0  0  0  0
   26.1181    6.4032   29.8457 O   0  0  0  0  0  0
   27.5267    6.3467   29.8015 C   0  0  0  0  0  0
   25.4291   10.6798   30.0834 H   0  0  0  0  0  0
   24.5755    9.7071   31.2713 H   0  0  0  0  0  0
   24.9864   11.3810   31.6459 H   0  0  0  0  0  0
   23.4715   12.1479   29.7950 H   0  0  0  0  0  0
   23.0016   10.5140   29.4507 H   0  0  0  0  0  0
   19.2739    7.2828   32.4151 H   0  0  0  0  0  0
   18.0465   10.4033   33.6600 H   0  0  0  0  0  0
   17.7780    8.7171   33.5106 H   0  0  0  0  0  0
   22.3683    6.7497   30.3624 H   0  0  0  0  0  0
   21.3784    3.3215   30.8270 H   0  0  0  0  0  0
   21.6971    4.2688   29.4037 H   0  0  0  0  0  0
   23.0272    0.6928   33.4011 H   0  0  0  0  0  0
   24.5859    0.7829   32.5979 H   0  0  0  0  0  0
   24.1765    1.9222   33.9113 H   0  0  0  0  0  0
   25.8664    2.6621   32.4605 H   0  0  0  0  0  0
   27.1601    4.4293   31.4781 H   0  0  0  0  0  0
   23.6600    5.9864   29.5421 H   0  0  0  0  0  0
   27.8994    7.1983   29.2327 H   0  0  0  0  0  0
   27.9681    6.3965   30.7964 H   0  0  0  0  0  0
   27.8742    5.4421   29.3025 H   0  0  0  0  0  0
  1  2  1  0  0  0
  1 27  1  0  0  0
  1 28  1  0  0  0
  1 29  1  0  0  0
  2  3  1  0  0  0
  2 30  1  0  0  0
  2 31  1  0  0  0
  3  4  1  0  0  0
  4 10  1  0  0  0
  4  5  2  0  0  0
  5  6  1  0  0  0
  6  7  2  0  0  0
  6 13  1  0  0  0
  7  8  1  0  0  0
  7 32  1  0  0  0
  8  9  1  0  0  0
  8 10  2  0  0  0
  9 33  1  0  0  0
  9 34  1  0  0  0
 10 11  1  0  0  0
 11 12  3  0  0  0
 13 14  1  0  0  0
 13 35  1  0  0  0
 14 15  2  0  0  0
 14 16  1  0  0  0
 16 17  1  0  0  0
 16 36  1  0  0  0
 16 37  1  0  0  0
 17 24  1  0  0  0
 17 18  2  0  0  0
 18 19  1  0  0  0
 18 21  1  0  0  0
 19 20  1  0  0  0
 20 38  1  0  0  0
 20 39  1  0  0  0
 20 40  1  0  0  0
 21 22  2  0  0  0
 21 41  1  0  0  0
 22 23  1  0  0  0
 22 42  1  0  0  0
 23 24  2  0  0  0
 23 25  1  0  0  0
 24 43  1  0  0  0
 25 26  1  0  0  0
 26 44  1  0  0  0
 26 45  1  0  0  0
 26 46  1  0  0  0
M  END
> <i_m_stars>
0

> <s_m_entry_id>
2977

> <s_m_entry_name>
Jnk1_18634-1.1

> <s_m_Source_Path>
C:\Users\yujiethinkpad\Desktop\05A\JNK1

> <s_m_Source_File>
Jnk1_18634-1.sdf

> <i_m_Source_File_Index>
1

> <s_i_glide_gridfile>
glide-grid_JNK1

> <r_i_docking_score>
-7.62932003283495

> <r_i_glide_ecoul>
-6.43474578857422

> <r_i_glide_einternal>
6.36489629745483

> <r_i_glide_emodel>
-57.3048873819367

> <r_i_glide_energy>
-43.3034057617188

> <r_i_glide_erotb>
0.753191267593457

> <r_i_glide_esite>
0

> <r_i_glide_evdw>
-36.8686599731445

> <r_i_glide_gscore>
-7.62932003283495

> <r_i_glide_hbond>
-0.335389805114426

> <r_i_glide_ligand_efficiency>
-0.293435385878267

> <r_i_glide_ligand_efficiency_ln>
-1.79172077587041

> <r_i_glide_ligand_efficiency_sa>
-0.869301176051877

> <r_i_glide_lipo>
-3.36554081180836

> <r_i_glide_metal>
0

> <r_i_glide_rewards>
-1.87293581656226

> <i_i_glide_confnum>
18

> <i_i_glide_lignum>
4

> <i_i_glide_posenum>
127

> <i_i_glide_rotatable_bonds>
8

> <r_i_glide_eff_state_penalty>
0

> <s_m_job_name>
glide-dock_SP_other_4988

> <r_user_dG.exp>
-9.993231

> <r_m_Molecular_weight>
356.3845

> <r_glide_shape_similarity>
0.9417365193367

> <s_m_subgroup_title>
glide-dock_SP_other_4988_lib1

> <s_m_subgroupid>
glide-dock_SP_other_4988_lib1

> <b_m_subgroup_collapsed>
0

$$$$
