18630-1
                    3D
 Schrodinger Suite 2021-2.
 41 42  0  0  1  0            999 V2000
   24.6710   10.8672   30.8241 C   0  0  0  0  0  0
   23.3078   11.1879   30.2369 C   0  0  0  0  0  0
   22.3469   11.3153   31.2690 O   0  0  0  0  0  0
   21.5783   10.2352   31.6491 C   0  0  0  0  0  0
   21.9000    9.0092   31.1803 N   0  0  0  0  0  0
   21.1089    7.9476   31.4352 C   0  0  0  0  0  0
   19.9375    8.1032   32.2027 C   0  0  0  0  0  0
   19.6117    9.3629   32.7140 C   0  0  0  0  0  0
   18.4350    9.4917   33.4333 N   0  0  0  0  0  0
   20.4400   10.4581   32.4357 C   0  0  0  0  0  0
   20.0964   11.7931   32.8701 C   0  0  0  0  0  0
   19.8170   12.8523   33.2166 N   0  0  0  0  0  0
   21.5211    6.6953   30.9000 N   0  0  0  0  0  0
   21.0531    5.4475   31.0868 C   0  0  0  0  0  0
   20.0108    5.1999   31.6666 O   0  0  0  0  0  0
   21.8309    4.2712   30.4805 C   0  0  0  0  0  0
   23.3180    4.3023   30.7930 C   0  0  0  0  0  0
   24.1235    5.2824   30.1868 C   0  0  0  0  0  0
   25.4977    5.3479   30.4436 C   0  0  0  0  0  0
   26.0955    4.3901   31.2743 C   0  0  0  0  0  0
   27.5828    4.4395   31.5320 C   0  0  0  0  0  0
   25.3049    3.3849   31.8626 C   0  0  0  0  0  0
   23.9178    3.3408   31.6308 C   0  0  0  0  0  0
   25.4329   10.8727   30.0455 H   0  0  0  0  0  0
   24.6827    9.8807   31.2846 H   0  0  0  0  0  0
   24.9518   11.5990   31.5813 H   0  0  0  0  0  0
   23.3605   12.1510   29.7301 H   0  0  0  0  0  0
   23.0205   10.4714   29.4665 H   0  0  0  0  0  0
   19.2747    7.2816   32.4179 H   0  0  0  0  0  0
   18.0588   10.4049   33.6516 H   0  0  0  0  0  0
   17.7835    8.7240   33.4959 H   0  0  0  0  0  0
   22.3672    6.7497   30.3610 H   0  0  0  0  0  0
   21.4044    3.3311   30.8343 H   0  0  0  0  0  0
   21.6902    4.2841   29.3993 H   0  0  0  0  0  0
   23.6968    6.0001   29.5020 H   0  0  0  0  0  0
   26.0977    6.1169   29.9788 H   0  0  0  0  0  0
   27.8373    3.9428   32.4682 H   0  0  0  0  0  0
   28.1202    3.9439   30.7242 H   0  0  0  0  0  0
   27.9296    5.4707   31.5928 H   0  0  0  0  0  0
   25.7598    2.6406   32.5001 H   0  0  0  0  0  0
   23.3219    2.5628   32.0864 H   0  0  0  0  0  0
  1  2  1  0  0  0
  1 24  1  0  0  0
  1 25  1  0  0  0
  1 26  1  0  0  0
  2  3  1  0  0  0
  2 27  1  0  0  0
  2 28  1  0  0  0
  3  4  1  0  0  0
  4 10  1  0  0  0
  4  5  2  0  0  0
  5  6  1  0  0  0
  6  7  2  0  0  0
  6 13  1  0  0  0
  7  8  1  0  0  0
  7 29  1  0  0  0
  8  9  1  0  0  0
  8 10  2  0  0  0
  9 30  1  0  0  0
  9 31  1  0  0  0
 10 11  1  0  0  0
 11 12  3  0  0  0
 13 14  1  0  0  0
 13 32  1  0  0  0
 14 15  2  0  0  0
 14 16  1  0  0  0
 16 17  1  0  0  0
 16 33  1  0  0  0
 16 34  1  0  0  0
 17 23  1  0  0  0
 17 18  2  0  0  0
 18 19  1  0  0  0
 18 35  1  0  0  0
 19 20  2  0  0  0
 19 36  1  0  0  0
 20 21  1  0  0  0
 20 22  1  0  0  0
 21 37  1  0  0  0
 21 38  1  0  0  0
 21 39  1  0  0  0
 22 23  2  0  0  0
 22 40  1  0  0  0
 23 41  1  0  0  0
M  END
> <i_m_stars>
0

> <s_m_entry_id>
2972

> <s_m_entry_name>
Jnk1_18630-1.1

> <s_m_Source_Path>
C:\Users\yujiethinkpad\Desktop\05A\JNK1

> <s_m_Source_File>
Jnk1_18630-1.sdf

> <i_m_Source_File_Index>
1

> <s_i_glide_gridfile>
glide-grid_JNK1

> <r_i_docking_score>
-7.72051275537899

> <r_i_glide_ecoul>
-6.57308959960938

> <r_i_glide_einternal>
8.11832427978516

> <r_i_glide_emodel>
-46.3479954543872

> <r_i_glide_energy>
-41.2845687866211

> <r_i_glide_erotb>
0.961897661652081

> <r_i_glide_esite>
0

> <r_i_glide_evdw>
-34.7114791870117

> <r_i_glide_gscore>
-7.72051275537899

> <r_i_glide_hbond>
-0.323686138481003

> <r_i_glide_ligand_efficiency>
-0.335674467625173

> <r_i_glide_ligand_efficiency_ln>
-1.86688998998983

> <r_i_glide_ligand_efficiency_sa>
-0.954613533460755

> <r_i_glide_lipo>
-3.44254739967764

> <r_i_glide_metal>
0

> <r_i_glide_rewards>
-2.19463947958044

> <i_i_glide_confnum>
1

> <i_i_glide_lignum>
20

> <i_i_glide_posenum>
281

> <i_i_glide_rotatable_bonds>
6

> <r_i_glide_eff_state_penalty>
0

> <s_m_job_name>
glide-dock_SP_other_4988

> <r_user_dG.exp>
-9.142359

> <r_m_Molecular_weight>
310.35861

> <r_glide_shape_similarity>
0.877813220024109

> <s_m_subgroup_title>
glide-dock_SP_other_4988_lib1

> <s_m_subgroupid>
glide-dock_SP_other_4988_lib1

> <b_m_subgroup_collapsed>
0

$$$$
