18659-1
                    3D
 Schrodinger Suite 2021-2.
 50 51  0  0  1  0            999 V2000
   23.2180   13.4605   28.6043 C   0  0  0  0  0  0
   23.7000   13.4758   29.9481 O   0  0  0  0  0  0
   24.4175   12.3049   30.3539 C   0  0  0  0  0  0
   23.5333   11.0426   30.4402 C   0  0  0  0  0  0
   22.3996   11.3099   31.2693 O   0  0  0  0  0  0
   21.5869   10.2515   31.6547 C   0  0  0  0  0  0
   21.9001    9.0132   31.1837 N   0  0  0  0  0  0
   21.0998    7.9492   31.4363 C   0  0  0  0  0  0
   19.9167    8.1073   32.2043 C   0  0  0  0  0  0
   19.5951    9.3793   32.7220 C   0  0  0  0  0  0
   18.4120    9.5062   33.4469 N   0  0  0  0  0  0
   20.4346   10.4862   32.4441 C   0  0  0  0  0  0
   20.0911   11.8344   32.8849 C   0  0  0  0  0  0
   19.8120   12.8964   33.2369 N   0  0  0  0  0  0
   21.5222    6.6924   30.9004 N   0  0  0  0  0  0
   21.0455    5.4384   31.0891 C   0  0  0  0  0  0
   19.9969    5.2001   31.6694 O   0  0  0  0  0  0
   21.8174    4.2427   30.4785 C   0  0  0  0  0  0
   23.3190    4.2487   30.8088 C   0  0  0  0  0  0
   23.9551    3.2821   31.6543 C   0  0  0  0  0  0
   23.2117    2.2573   32.2025 O   0  0  0  0  0  0
   23.8336    1.3749   33.1394 C   0  0  0  0  0  0
   25.3614    3.3750   31.8675 C   0  0  0  0  0  0
   26.1160    4.4051   31.2699 C   0  0  0  0  0  0
   25.4857    5.3755   30.4537 C   0  0  0  0  0  0
   24.1015    5.2565   30.2004 C   0  0  0  0  0  0
   26.2476    6.4007   29.9257 O   0  0  0  0  0  0
   25.5688    7.5933   29.5166 C   0  0  0  0  0  0
   22.7802   14.4316   28.3576 H   0  0  0  0  0  0
   22.4433   12.7050   28.4749 H   0  0  0  0  0  0
   24.0247   13.2625   27.8938 H   0  0  0  0  0  0
   25.2650   12.1320   29.6854 H   0  0  0  0  0  0
   24.8388   12.5074   31.3400 H   0  0  0  0  0  0
   23.2039   10.7260   29.4519 H   0  0  0  0  0  0
   24.1390   10.2356   30.8538 H   0  0  0  0  0  0
   19.2548    7.2822   32.4160 H   0  0  0  0  0  0
   18.0240   10.4195   33.6735 H   0  0  0  0  0  0
   17.7768    8.7224   33.5449 H   0  0  0  0  0  0
   22.3672    6.7583   30.3499 H   0  0  0  0  0  0
   21.3583    3.3072   30.8123 H   0  0  0  0  0  0
   21.6843    4.2722   29.3956 H   0  0  0  0  0  0
   23.0868    0.6875   33.5336 H   0  0  0  0  0  0
   24.6055    0.7747   32.6612 H   0  0  0  0  0  0
   24.2639    1.9140   33.9841 H   0  0  0  0  0  0
   25.8956    2.6634   32.4786 H   0  0  0  0  0  0
   27.1765    4.4744   31.4579 H   0  0  0  0  0  0
   23.6230    5.9470   29.5239 H   0  0  0  0  0  0
   26.3076    8.3632   29.2907 H   0  0  0  0  0  0
   24.9936    7.4303   28.6051 H   0  0  0  0  0  0
   24.9098    7.9708   30.3004 H   0  0  0  0  0  0
  1  2  1  0  0  0
  1 29  1  0  0  0
  1 30  1  0  0  0
  1 31  1  0  0  0
  2  3  1  0  0  0
  3  4  1  0  0  0
  3 32  1  0  0  0
  3 33  1  0  0  0
  4  5  1  0  0  0
  4 34  1  0  0  0
  4 35  1  0  0  0
  5  6  1  0  0  0
  6 12  1  0  0  0
  6  7  2  0  0  0
  7  8  1  0  0  0
  8  9  2  0  0  0
  8 15  1  0  0  0
  9 10  1  0  0  0
  9 36  1  0  0  0
 10 11  1  0  0  0
 10 12  2  0  0  0
 11 37  1  0  0  0
 11 38  1  0  0  0
 12 13  1  0  0  0
 13 14  3  0  0  0
 15 16  1  0  0  0
 15 39  1  0  0  0
 16 17  2  0  0  0
 16 18  1  0  0  0
 18 19  1  0  0  0
 18 40  1  0  0  0
 18 41  1  0  0  0
 19 26  1  0  0  0
 19 20  2  0  0  0
 20 21  1  0  0  0
 20 23  1  0  0  0
 21 22  1  0  0  0
 22 42  1  0  0  0
 22 43  1  0  0  0
 22 44  1  0  0  0
 23 24  2  0  0  0
 23 45  1  0  0  0
 24 25  1  0  0  0
 24 46  1  0  0  0
 25 26  2  0  0  0
 25 27  1  0  0  0
 26 47  1  0  0  0
 27 28  1  0  0  0
 28 48  1  0  0  0
 28 49  1  0  0  0
 28 50  1  0  0  0
M  END
> <i_m_stars>
0

> <s_m_entry_id>
2982

> <s_m_entry_name>
Jnk1_18659-1.1

> <s_m_Source_Path>
C:\Users\yujiethinkpad\Desktop\05A\JNK1

> <s_m_Source_File>
Jnk1_18659-1.sdf

> <i_m_Source_File_Index>
1

> <s_i_glide_gridfile>
glide-grid_JNK1

> <r_i_docking_score>
-7.44833653919585

> <r_i_glide_ecoul>
-6.61504077911377

> <r_i_glide_einternal>
11.1481285095215

> <r_i_glide_emodel>
-59.8530285109829

> <r_i_glide_energy>
-45.9311304092407

> <r_i_glide_erotb>
0.912493649000088

> <r_i_glide_esite>
0

> <r_i_glide_evdw>
-39.316089630127

> <r_i_glide_gscore>
-7.44833653919585

> <r_i_glide_hbond>
-0.346137857636586

> <r_i_glide_ligand_efficiency>
-0.266012019256995

> <r_i_glide_ligand_efficiency_ln>
-1.71929476590998

> <r_i_glide_ligand_efficiency_sa>
-0.807769163164949

> <r_i_glide_lipo>
-3.42056571772308

> <r_i_glide_metal>
0

> <r_i_glide_rewards>
-1.63606601446286

> <i_i_glide_confnum>
191

> <i_i_glide_lignum>
12

> <i_i_glide_posenum>
317

> <i_i_glide_rotatable_bonds>
10

> <r_i_glide_eff_state_penalty>
0

> <s_m_job_name>
glide-dock_SP_other_4988

> <r_user_dG.exp>
-9.465222

> <r_m_Molecular_weight>
386.41099

> <r_glide_shape_similarity>
0.956384539604187

> <s_m_subgroup_title>
glide-dock_SP_other_4988_lib1

> <s_m_subgroupid>
glide-dock_SP_other_4988_lib1

> <b_m_subgroup_collapsed>
0

$$$$
