18660-1
                    3D
 Schrodinger Suite 2021-2.
 52 53  0  0  1  0            999 V2000
   25.8652    9.3105   29.0776 C   0  0  0  0  0  0
   25.3111   10.9880   28.5162 S   0  0  0  0  0  0
   26.1376   11.9989   29.2066 O   0  0  0  0  0  0
   25.2406   10.9533   27.0424 O   0  0  0  0  0  0
   23.5944   11.0960   29.1976 C   0  0  0  0  0  0
   23.6409   11.1631   30.7346 C   0  0  0  0  0  0
   22.3425   11.3506   31.2703 O   0  0  0  0  0  0
   21.5794   10.2559   31.6496 C   0  0  0  0  0  0
   21.9132    9.0233   31.1764 N   0  0  0  0  0  0
   21.1178    7.9531   31.4344 C   0  0  0  0  0  0
   19.9372    8.1033   32.2062 C   0  0  0  0  0  0
   19.6047    9.3672   32.7285 C   0  0  0  0  0  0
   18.4166    9.4863   33.4546 N   0  0  0  0  0  0
   20.4295   10.4789   32.4408 C   0  0  0  0  0  0
   20.0869   11.8263   32.8847 C   0  0  0  0  0  0
   19.8109   12.8896   33.2367 N   0  0  0  0  0  0
   21.5307    6.6922   30.8991 N   0  0  0  0  0  0
   21.0488    5.4392   31.0864 C   0  0  0  0  0  0
   20.0010    5.1990   31.6678 O   0  0  0  0  0  0
   21.8194    4.2424   30.4808 C   0  0  0  0  0  0
   23.3188    4.2545   30.8099 C   0  0  0  0  0  0
   23.9526    3.2832   31.6510 C   0  0  0  0  0  0
   23.2113    2.2553   32.1924 O   0  0  0  0  0  0
   23.8279    1.3691   33.1267 C   0  0  0  0  0  0
   25.3529    3.3762   31.8708 C   0  0  0  0  0  0
   26.1140    4.3983   31.2753 C   0  0  0  0  0  0
   25.4913    5.3585   30.4386 C   0  0  0  0  0  0
   24.1092    5.2602   30.2007 C   0  0  0  0  0  0
   26.1604    6.3892   29.8182 O   0  0  0  0  0  0
   27.5762    6.2710   29.7006 C   0  0  0  0  0  0
   26.8946    9.1586   28.7550 H   0  0  0  0  0  0
   25.2280    8.5432   28.6404 H   0  0  0  0  0  0
   25.8274    9.2318   30.1591 H   0  0  0  0  0  0
   23.1340   11.9917   28.7795 H   0  0  0  0  0  0
   23.0309   10.2304   28.8433 H   0  0  0  0  0  0
   24.1410   10.2983   31.1708 H   0  0  0  0  0  0
   24.2295   12.0285   31.0360 H   0  0  0  0  0  0
   19.2700    7.2827   32.4119 H   0  0  0  0  0  0
   18.0248   10.3948   33.6864 H   0  0  0  0  0  0
   17.7717    8.7054   33.5478 H   0  0  0  0  0  0
   22.3748    6.7510   30.3486 H   0  0  0  0  0  0
   21.3713    3.3096   30.8228 H   0  0  0  0  0  0
   21.6897    4.2643   29.3970 H   0  0  0  0  0  0
   23.0781    0.6723   33.5029 H   0  0  0  0  0  0
   24.6151    0.7769   32.6588 H   0  0  0  0  0  0
   24.2440    1.9062   33.9820 H   0  0  0  0  0  0
   25.8792    2.6653   32.4881 H   0  0  0  0  0  0
   27.1736    4.4340   31.4793 H   0  0  0  0  0  0
   23.6612    5.9709   29.5225 H   0  0  0  0  0  0
   27.9527    7.0391   29.0246 H   0  0  0  0  0  0
   28.0753    6.3972   30.6643 H   0  0  0  0  0  0
   27.8643    5.3058   29.2765 H   0  0  0  0  0  0
  1  2  1  0  0  0
  1 31  1  0  0  0
  1 32  1  0  0  0
  1 33  1  0  0  0
  2  3  2  0  0  0
  2  4  2  0  0  0
  2  5  1  0  0  0
  5  6  1  0  0  0
  5 34  1  0  0  0
  5 35  1  0  0  0
  6  7  1  0  0  0
  6 36  1  0  0  0
  6 37  1  0  0  0
  7  8  1  0  0  0
  8 14  1  0  0  0
  8  9  2  0  0  0
  9 10  1  0  0  0
 10 11  2  0  0  0
 10 17  1  0  0  0
 11 12  1  0  0  0
 11 38  1  0  0  0
 12 13  1  0  0  0
 12 14  2  0  0  0
 13 39  1  0  0  0
 13 40  1  0  0  0
 14 15  1  0  0  0
 15 16  3  0  0  0
 17 18  1  0  0  0
 17 41  1  0  0  0
 18 19  2  0  0  0
 18 20  1  0  0  0
 20 21  1  0  0  0
 20 42  1  0  0  0
 20 43  1  0  0  0
 21 28  1  0  0  0
 21 22  2  0  0  0
 22 23  1  0  0  0
 22 25  1  0  0  0
 23 24  1  0  0  0
 24 44  1  0  0  0
 24 45  1  0  0  0
 24 46  1  0  0  0
 25 26  2  0  0  0
 25 47  1  0  0  0
 26 27  1  0  0  0
 26 48  1  0  0  0
 27 28  2  0  0  0
 27 29  1  0  0  0
 28 49  1  0  0  0
 29 30  1  0  0  0
 30 50  1  0  0  0
 30 51  1  0  0  0
 30 52  1  0  0  0
M  END
> <i_m_stars>
0

> <s_m_entry_id>
2969

> <s_m_entry_name>
Jnk1_18660-1.1

> <s_m_Source_Path>
C:\Users\yujiethinkpad\Desktop\05A\JNK1

> <s_m_Source_File>
Jnk1_18660-1.sdf

> <i_m_Source_File_Index>
1

> <s_i_glide_gridfile>
glide-grid_JNK1

> <r_i_docking_score>
-7.82922239099052

> <r_i_glide_ecoul>
-10.1025505065918

> <r_i_glide_einternal>
10.5006561279297

> <r_i_glide_emodel>
-59.876423603821

> <r_i_glide_energy>
-50.9889755249023

> <r_i_glide_erotb>
0.738560552425822

> <r_i_glide_esite>
-0.0102629461058601

> <r_i_glide_evdw>
-40.8864250183105

> <r_i_glide_gscore>
-7.82922239099052

> <r_i_glide_hbond>
-0.359548736534465

> <r_i_glide_ligand_efficiency>
-0.260974079699684

> <r_i_glide_ligand_efficiency_ln>
-1.77888463344349

> <r_i_glide_ligand_efficiency_sa>
-0.8109071427349

> <r_i_glide_lipo>
-3.13891082629761

> <r_i_glide_metal>
0

> <r_i_glide_rewards>
-1.49935660757411

> <i_i_glide_confnum>
6

> <i_i_glide_lignum>
13

> <i_i_glide_posenum>
344

> <i_i_glide_rotatable_bonds>
10

> <r_i_glide_eff_state_penalty>
0

> <s_m_job_name>
glide-dock_SP_other_4988

> <r_user_dG.exp>
-8.702592

> <r_m_Molecular_weight>
434.47439

> <r_glide_shape_similarity>
0.882956326007843

> <s_m_subgroup_title>
glide-dock_SP_other_4988_lib1

> <s_m_subgroupid>
glide-dock_SP_other_4988_lib1

> <b_m_subgroup_collapsed>
0

$$$$
