/home/yujie/leadopt/data/result/selection/WDR5/lig_2.sdf:1
                    3D
 Schrodinger Suite 2020-3.
 71 75  0  0  1  0            999 V2000
   12.4877   20.3057   23.8313 O   0  0  0  0  0  0
   12.0946   19.1568   24.0504 C   0  0  0  0  0  0
   12.3557   18.5213   25.2362 N   0  0  0  0  0  0
   13.2314   19.1600   26.2379 C   0  0  0  0  0  0
   14.6820   18.6739   26.3019 C   0  0  0  0  0  0
   15.3489   18.1294   25.1947 C   0  0  0  0  0  0
   16.7035   17.7614   25.2860 C   0  0  0  0  0  0
   17.4702   17.2949   24.2406 O   0  0  0  0  0  0
   16.8710   17.1180   22.9670 C   0  0  0  0  0  0
   17.3644   17.9139   26.5046 C   0  0  0  0  0  0
   16.7147   18.4459   27.6249 C   0  0  0  0  0  0
   17.3182   18.6599   28.8505 O   0  0  0  0  0  0
   18.7180   18.4292   28.9776 C   0  0  0  0  0  0
   15.3747   18.8143   27.5080 C   0  0  0  0  0  0
   11.9645   17.1200   25.5099 C   0  0  0  0  0  0
   10.6577   16.7198   24.8056 C   0  0  0  0  0  0
   10.6742   17.1412   23.3452 C   0  0  0  0  0  0
   11.2928   18.3653   23.0338 C   0  0  0  0  0  0
   11.1949   18.9008   21.7418 C   0  0  0  0  0  0
   10.5938   18.1695   20.7228 C   0  0  0  0  0  0
   10.5644   18.7104   19.2999 C   0  0  0  0  0  0
   11.7294   18.3334   18.5046 N   0  3  0  0  0  0
   12.6032   19.1880   17.8502 C   0  0  0  0  0  0
   13.5462   18.4217   17.1847 N   0  0  0  0  0  0
   14.6430   18.9241   16.3704 C   0  0  0  0  0  0
   13.2602   17.0858   17.4261 C   0  0  0  0  0  0
   12.1296   17.0321   18.2260 C   0  0  0  0  0  0
   12.5268   20.5405   17.8271 N   0  0  0  0  0  0
   10.0734   16.9107   21.0065 C   0  0  0  0  0  0
   10.0973   16.3845   22.3033 C   0  0  0  0  0  0
    9.5050   15.0319   22.5108 C   0  0  0  0  0  0
   10.2635   13.9199   22.9322 C   0  0  0  0  0  0
   11.6083   14.1147   23.1946 O   0  0  0  0  0  0
   12.3827   13.0340   23.7140 C   0  0  0  0  0  0
    9.6308   12.6702   23.0642 C   0  0  0  0  0  0
    8.2813   12.5222   22.7612 C   0  0  0  0  0  0
    7.6767   11.3187   22.8857 F   0  0  0  0  0  0
    7.5445   13.6194   22.3361 C   0  0  0  0  0  0
    8.1467   14.8653   22.2297 C   0  0  0  0  0  0
   13.2442   20.2471   26.1259 H   0  0  0  0  0  0
   12.7825   18.9778   27.2167 H   0  0  0  0  0  0
   14.8172   18.0443   24.2590 H   0  0  0  0  0  0
   17.6178   16.7550   22.2602 H   0  0  0  0  0  0
   16.0700   16.3821   23.0175 H   0  0  0  0  0  0
   16.4749   18.0571   22.5819 H   0  0  0  0  0  0
   18.4031   17.6253   26.5463 H   0  0  0  0  0  0
   19.0417   18.6810   29.9881 H   0  0  0  0  0  0
   18.9730   17.3832   28.8042 H   0  0  0  0  0  0
   19.2884   19.0534   28.2875 H   0  0  0  0  0  0
   14.8810   19.2402   28.3696 H   0  0  0  0  0  0
   12.7307   16.4721   25.0810 H   0  0  0  0  0  0
   11.9929   16.8828   26.5737 H   0  0  0  0  0  0
    9.8192   17.1983   25.3101 H   0  0  0  0  0  0
   10.5004   15.6518   24.9375 H   0  0  0  0  0  0
   11.6379   19.8614   21.5046 H   0  0  0  0  0  0
    9.6740   18.3634   18.7823 H   0  0  0  0  0  0
   10.4767   19.7989   19.3270 H   0  0  0  0  0  0
   14.2426   19.3255   15.4391 H   0  0  0  0  0  0
   15.1742   19.7088   16.9117 H   0  0  0  0  0  0
   15.3396   18.1199   16.1319 H   0  0  0  0  0  0
   13.8686   16.2957   17.0065 H   0  0  0  0  0  0
   11.5859   16.1876   18.6265 H   0  0  0  0  0  0
   12.7153   21.0466   16.9694 H   0  0  0  0  0  0
    9.6640   16.3228   20.1958 H   0  0  0  0  0  0
   13.4025   13.3746   23.8822 H   0  0  0  0  0  0
   11.9941   12.6859   24.6719 H   0  0  0  0  0  0
   12.4268   12.1862   23.0264 H   0  0  0  0  0  0
   10.1686   11.7891   23.3872 H   0  0  0  0  0  0
    6.4988   13.5107   22.0837 H   0  0  0  0  0  0
    7.5555   15.7093   21.9041 H   0  0  0  0  0  0
   12.2225   21.0546   18.6468 H   0  0  0  0  0  0
  1  2  2  0  0  0
  2 18  1  0  0  0
  2  3  1  0  0  0
  3  4  1  0  0  0
  3 15  1  0  0  0
  4  5  1  0  0  0
  4 40  1  0  0  0
  4 41  1  0  0  0
  5 14  1  0  0  0
  5  6  2  0  0  0
  6  7  1  0  0  0
  6 42  1  0  0  0
  7  8  1  0  0  0
  7 10  2  0  0  0
  8  9  1  0  0  0
  9 43  1  0  0  0
  9 44  1  0  0  0
  9 45  1  0  0  0
 10 11  1  0  0  0
 10 46  1  0  0  0
 11 12  1  0  0  0
 11 14  2  0  0  0
 12 13  1  0  0  0
 13 47  1  0  0  0
 13 48  1  0  0  0
 13 49  1  0  0  0
 14 50  1  0  0  0
 15 16  1  0  0  0
 15 51  1  0  0  0
 15 52  1  0  0  0
 16 17  1  0  0  0
 16 53  1  0  0  0
 16 54  1  0  0  0
 17 30  1  0  0  0
 17 18  2  0  0  0
 18 19  1  0  0  0
 19 20  2  0  0  0
 19 55  1  0  0  0
 20 21  1  0  0  0
 20 29  1  0  0  0
 21 22  1  0  0  0
 21 56  1  0  0  0
 21 57  1  0  0  0
 22 27  1  0  0  0
 22 23  2  0  0  0
 23 24  1  0  0  0
 23 28  1  0  0  0
 24 25  1  0  0  0
 24 26  1  0  0  0
 25 58  1  0  0  0
 25 59  1  0  0  0
 25 60  1  0  0  0
 26 27  2  0  0  0
 26 61  1  0  0  0
 27 62  1  0  0  0
 28 63  1  0  0  0
 28 71  1  0  0  0
 29 30  2  0  0  0
 29 64  1  0  0  0
 30 31  1  0  0  0
 31 39  1  0  0  0
 31 32  2  0  0  0
 32 33  1  0  0  0
 32 35  1  0  0  0
 33 34  1  0  0  0
 34 65  1  0  0  0
 34 66  1  0  0  0
 34 67  1  0  0  0
 35 36  2  0  0  0
 35 68  1  0  0  0
 36 37  1  0  0  0
 36 38  1  0  0  0
 38 39  2  0  0  0
 38 69  1  0  0  0
 39 70  1  0  0  0
M  CHG  1  22   1
M  END
> <s_m_source_file>
/home/yujie/leadopt/data/result/selection/WDR5/lig_2.sdf

> <i_m_source_file_index>
1

> <i_lp_mmshare_version>
51139

> <i_f3d_flags>
0

> <s_epik_input>
W0NIM11PYyhbY0hdMSlbY0hdYyhPW0NIM10pW2NIXWMxW0NIMl1OKFtDSDJdW0NIMl0yKUMoPU8pYyhjMjMpW2NIXWMoW0NIMl1uNC9jKD1OL1tIXSluKFtDSDNdKVtjSF1bY0hdNClbY0hdYzMtYzVjKE9bQ0gzXSlbY0hdYyhGKVtjSF1bY0hdNQ==

> <s_epik_cmdline>
J2VwaWtfcHl0aG9uJywgJy1waHQnLCAnMi4wJywgJy1waCcsICc3LjAnLCAnLXRuJywgJzgnLCAnLW1hJywgJzIwMCcsICctaW1hZScsICc8aW5maWxlLm1hZT4nLCAnLW9tYWUnLCAnPG91dGZpbGUubWFlPic=

> <r_lp_tautomer_probability>
1

> <r_epik_Ionization_Penalty>
  0.0001

> <r_epik_Ionization_Penalty_Charging>
  0.0000

> <r_epik_Ionization_Penalty_Neutral>
  0.0001

> <r_epik_State_Penalty>
 -0.0000

> <r_epik_Charging_Adjusted_Penalty>
0

> <i_epik_Tot_Q>
1

> <i_epik_Tot_abs_Q>
1

> <s_lp_Force_Field>
OPLS3e

> <r_lp_Energy>
59.3784

> <b_lp_Chiralities_Consistent>
1

> <s_lp_Variant>
/home/yujie/leadopt/data/result/selection/WDR5/lig_2.sdf:1-1

> <s_i_glide_gridfile>
glide-grid_WDR5

> <i_i_glide_lignum>
1

> <i_i_glide_rotatable_bonds>
8

> <r_i_docking_score>
-11.3700036381633

> <r_i_glide_ligand_efficiency>
-0.2915385548247

> <r_i_glide_ligand_efficiency_sa>
-0.988668881993987

> <r_i_glide_ligand_efficiency_ln>
-2.43805153676899

> <r_i_glide_gscore>
-11.3700036381633

> <r_i_glide_lipo>
-4.17943643773529

> <r_i_glide_hbond>
-0.531815785988031

> <r_i_glide_metal>
-0

> <r_i_glide_rewards>
-2.44055236237101

> <r_i_glide_evdw>
-60.4239082336426

> <r_i_glide_ecoul>
-10.3219165802002

> <r_i_glide_erotb>
0.364848176722455

> <r_i_glide_esite>
-0.0135643300792809

> <r_i_glide_emodel>
-114.204688408033

> <r_i_glide_energy>
-70.7458248138428

> <r_i_glide_einternal>
16.1394577026367

> <i_i_glide_confnum>
98

> <i_i_glide_posenum>
301

> <r_i_glide_eff_state_penalty>
-0

$$$$
