/home/yujie/leadopt/data/result/selection/WDR5/lig_6.sdf:1
                    3D
 Schrodinger Suite 2020-3.
 72 76  0  0  1  0            999 V2000
   12.4730   20.4479   23.8263 O   0  0  0  0  0  0
   12.1018   19.2784   23.9438 C   0  0  0  0  0  0
   12.3730   18.5519   25.0724 N   0  0  0  0  0  0
   13.2742   19.1043   26.0992 C   0  0  0  0  0  0
   14.7131   18.5787   26.1253 C   0  0  0  0  0  0
   15.3809   18.5613   27.3512 C   0  0  0  0  0  0
   16.7055   18.1402   27.4509 C   0  0  0  0  0  0
   17.2752   18.1811   28.7074 O   0  0  0  0  0  0
   18.6384   17.8034   28.8606 C   0  0  0  0  0  0
   17.3647   17.7184   26.2910 C   0  0  0  0  0  0
   16.7252   17.7185   25.0527 C   0  0  0  0  0  0
   17.4963   17.3164   23.9793 O   0  0  0  0  0  0
   16.9298   17.3032   22.6783 C   0  0  0  0  0  0
   15.3870   18.1450   24.9741 C   0  0  0  0  0  0
   11.9715   17.1389   25.2452 C   0  0  0  0  0  0
   10.6451   16.7991   24.5373 C   0  0  0  0  0  0
   10.5987   17.3703   23.1300 C   0  0  0  0  0  0
   11.2881   18.5684   22.8798 C   0  0  0  0  0  0
   11.2083   19.1685   21.6175 C   0  0  0  0  0  0
   10.5398   18.5355   20.5718 C   0  0  0  0  0  0
   10.5761   19.1077   19.1627 C   0  0  0  0  0  0
   11.7325   18.6348   18.4069 N   0  3  0  0  0  0
   12.7293   19.4034   17.8266 C   0  0  0  0  0  0
   13.6298   18.5508   17.2060 N   0  0  0  0  0  0
   14.8214   18.9393   16.4689 C   0  0  0  0  0  0
   13.2020   17.2489   17.4172 C   0  0  0  0  0  0
   12.0213   17.3045   18.1350 C   0  0  0  0  0  0
   12.7923   20.7565   17.8264 N   0  0  0  0  0  0
    9.8787   17.3377   20.8111 C   0  0  0  0  0  0
    9.8930   16.7566   22.0774 C   0  0  0  0  0  0
    9.1317   15.5043   22.2712 C   0  0  0  0  0  0
    7.7421   15.5138   22.4768 C   0  0  0  0  0  0
    6.9375   16.8023   22.5438 C   0  0  0  0  0  0
    7.0185   14.3775   22.6271 N   0  0  0  0  0  0
    7.6733   13.1918   22.5836 C   0  0  0  0  0  0
    9.0458   13.0839   22.4015 C   0  0  0  0  0  0
    9.6988   11.7190   22.4114 C   0  0  0  0  0  0
    9.7838   14.2612   22.2403 C   0  0  0  0  0  0
   13.3165   20.1944   26.0572 H   0  0  0  0  0  0
   12.8248   18.8753   27.0662 H   0  0  0  0  0  0
   14.8790   18.8990   28.2443 H   0  0  0  0  0  0
   18.9420   17.9552   29.8967 H   0  0  0  0  0  0
   18.7865   16.7485   28.6271 H   0  0  0  0  0  0
   19.2989   18.4069   28.2362 H   0  0  0  0  0  0
   18.3926   17.3909   26.3293 H   0  0  0  0  0  0
   17.6734   16.9412   21.9673 H   0  0  0  0  0  0
   16.0762   16.6300   22.6274 H   0  0  0  0  0  0
   16.6270   18.3030   22.3617 H   0  0  0  0  0  0
   14.8792   18.1667   24.0248 H   0  0  0  0  0  0
   12.7252   16.5313   24.7417 H   0  0  0  0  0  0
   12.0305   16.8084   26.2829 H   0  0  0  0  0  0
    9.8119   17.1878   25.1238 H   0  0  0  0  0  0
   10.5183   15.7157   24.5304 H   0  0  0  0  0  0
   11.6871   20.1185   21.4224 H   0  0  0  0  0  0
    9.6741   18.8376   18.6151 H   0  0  0  0  0  0
   10.5797   20.1953   19.1943 H   0  0  0  0  0  0
   14.5402   19.1855   15.4436 H   0  0  0  0  0  0
   15.2716   19.8117   16.9407 H   0  0  0  0  0  0
   15.5401   18.1197   16.4543 H   0  0  0  0  0  0
   13.7578   16.4063   17.0275 H   0  0  0  0  0  0
   11.3634   16.5180   18.4820 H   0  0  0  0  0  0
   13.1117   21.2543   17.0076 H   0  0  0  0  0  0
    9.3464   16.8544   20.0034 H   0  0  0  0  0  0
    7.1158   17.4194   21.6642 H   0  0  0  0  0  0
    5.8632   16.6190   22.6032 H   0  0  0  0  0  0
    7.2344   17.3724   23.4221 H   0  0  0  0  0  0
    7.0763   12.2998   22.6878 H   0  0  0  0  0  0
    9.1957   11.0467   23.1054 H   0  0  0  0  0  0
   10.7323   11.7885   22.7463 H   0  0  0  0  0  0
    9.6716   11.2603   21.4266 H   0  0  0  0  0  0
   10.8511   14.2079   22.0868 H   0  0  0  0  0  0
   12.4713   21.2824   18.6285 H   0  0  0  0  0  0
  1  2  2  0  0  0
  2 18  1  0  0  0
  2  3  1  0  0  0
  3  4  1  0  0  0
  3 15  1  0  0  0
  4  5  1  0  0  0
  4 39  1  0  0  0
  4 40  1  0  0  0
  5 14  1  0  0  0
  5  6  2  0  0  0
  6  7  1  0  0  0
  6 41  1  0  0  0
  7  8  1  0  0  0
  7 10  2  0  0  0
  8  9  1  0  0  0
  9 42  1  0  0  0
  9 43  1  0  0  0
  9 44  1  0  0  0
 10 11  1  0  0  0
 10 45  1  0  0  0
 11 12  1  0  0  0
 11 14  2  0  0  0
 12 13  1  0  0  0
 13 46  1  0  0  0
 13 47  1  0  0  0
 13 48  1  0  0  0
 14 49  1  0  0  0
 15 16  1  0  0  0
 15 50  1  0  0  0
 15 51  1  0  0  0
 16 17  1  0  0  0
 16 52  1  0  0  0
 16 53  1  0  0  0
 17 30  1  0  0  0
 17 18  2  0  0  0
 18 19  1  0  0  0
 19 20  2  0  0  0
 19 54  1  0  0  0
 20 21  1  0  0  0
 20 29  1  0  0  0
 21 22  1  0  0  0
 21 55  1  0  0  0
 21 56  1  0  0  0
 22 27  1  0  0  0
 22 23  2  0  0  0
 23 24  1  0  0  0
 23 28  1  0  0  0
 24 25  1  0  0  0
 24 26  1  0  0  0
 25 57  1  0  0  0
 25 58  1  0  0  0
 25 59  1  0  0  0
 26 27  2  0  0  0
 26 60  1  0  0  0
 27 61  1  0  0  0
 28 62  1  0  0  0
 28 72  1  0  0  0
 29 30  2  0  0  0
 29 63  1  0  0  0
 30 31  1  0  0  0
 31 38  1  0  0  0
 31 32  2  0  0  0
 32 33  1  0  0  0
 32 34  1  0  0  0
 33 64  1  0  0  0
 33 65  1  0  0  0
 33 66  1  0  0  0
 34 35  2  0  0  0
 35 36  1  0  0  0
 35 67  1  0  0  0
 36 37  1  0  0  0
 36 38  2  0  0  0
 37 68  1  0  0  0
 37 69  1  0  0  0
 37 70  1  0  0  0
 38 71  1  0  0  0
M  CHG  1  22   1
M  END
> <s_m_source_file>
/home/yujie/leadopt/data/result/selection/WDR5/lig_6.sdf

> <i_m_source_file_index>
1

> <i_lp_mmshare_version>
51139

> <i_f3d_flags>
0

> <s_epik_input>
W0NIM11PYyhbY0hdMSlbY0hdYyhPW0NIM10pW2NIXWMxW0NIMl1OKFtDSDJdW0NIMl0yKUMoPU8pYyhjMjMpW2NIXWMoW0NIMl1uNC9jKD1OL1tIXSluKFtDSDNdKVtjSF1bY0hdNClbY0hdYzMtYzVjKFtDSDNdKW5bY0hdYyhbQ0gzXSlbY0hdNQ==

> <s_epik_cmdline>
J2VwaWtfcHl0aG9uJywgJy1waHQnLCAnMi4wJywgJy1waCcsICc3LjAnLCAnLXRuJywgJzgnLCAnLW1hJywgJzIwMCcsICctaW1hZScsICc8aW5maWxlLm1hZT4nLCAnLW9tYWUnLCAnPG91dGZpbGUubWFlPic=

> <r_lp_tautomer_probability>
1

> <r_epik_Ionization_Penalty>
  0.0353

> <r_epik_Ionization_Penalty_Charging>
  0.0000

> <r_epik_Ionization_Penalty_Neutral>
  0.0353

> <r_epik_State_Penalty>
  0.0294

> <r_epik_Charging_Adjusted_Penalty>
0.0293904

> <i_epik_Tot_Q>
1

> <i_epik_Tot_abs_Q>
1

> <s_lp_Force_Field>
OPLS3e

> <r_lp_Energy>
56.213

> <b_lp_Chiralities_Consistent>
1

> <s_lp_Variant>
/home/yujie/leadopt/data/result/selection/WDR5/lig_6.sdf:1-1

> <s_i_glide_gridfile>
glide-grid_WDR5

> <i_i_glide_lignum>
1

> <i_i_glide_rotatable_bonds>
7

> <r_i_docking_score>
-11.7903694811706

> <r_i_glide_ligand_efficiency>
-0.310272881083436

> <r_i_glide_ligand_efficiency_sa>
-1.04312979433435

> <r_i_glide_ligand_efficiency_ln>
-2.54235049767058

> <r_i_glide_gscore>
-11.8197598811706

> <r_i_glide_lipo>
-4.5545946352989

> <r_i_glide_hbond>
-0.531500624314678

> <r_i_glide_metal>
-0

> <r_i_glide_rewards>
-2.47195981055099

> <r_i_glide_evdw>
-61.4505805969238

> <r_i_glide_ecoul>
-10.5283212661743

> <r_i_glide_erotb>
0.390072408766338

> <r_i_glide_esite>
0

> <r_i_glide_emodel>
-120.70849000374

> <r_i_glide_energy>
-71.9789018630981

> <r_i_glide_einternal>
10.1541624069214

> <i_i_glide_confnum>
109

> <i_i_glide_posenum>
111

> <r_i_glide_eff_state_penalty>
0.0293904

$$$$
