/home/yujie/leadopt/data/result/selection/WDR5/lig_29.sdf:1
                    3D
 Schrodinger Suite 2020-3.
 62 66  0  0  1  0            999 V2000
   12.4730   20.3178   23.8265 O   0  0  0  0  0  0
   12.0731   19.1597   23.9781 C   0  0  0  0  0  0
   12.3257   18.4693   25.1344 N   0  0  0  0  0  0
   13.2947   19.0097   26.1053 C   0  0  0  0  0  0
   14.7463   18.5494   25.9411 C   0  0  0  0  0  0
   15.2745   18.1226   24.7108 C   0  0  0  0  0  0
   16.6109   17.7171   24.6567 C   0  0  0  0  0  0
   17.2435   17.2323   23.3659 C   0  0  0  0  0  0
   17.4248   17.7135   25.7441 N   0  0  0  0  0  0
   16.9026   18.1191   26.9275 C   0  0  0  0  0  0
   15.5775   18.5331   27.0678 C   0  0  0  0  0  0
   11.9143   17.0628   25.3462 C   0  0  0  0  0  0
   10.5837   16.7238   24.6536 C   0  0  0  0  0  0
   10.5620   17.2355   23.2234 C   0  0  0  0  0  0
   11.2523   18.4253   22.9349 C   0  0  0  0  0  0
   11.1918   18.9729   21.6452 C   0  0  0  0  0  0
   10.5617   18.2825   20.6072 C   0  0  0  0  0  0
   10.6169   18.8067   19.1771 C   0  0  0  0  0  0
   11.7776   18.3220   18.4251 N   0  0  0  0  0  0
   12.7786   19.0943   17.8535 C   0  0  0  0  0  0
   12.8952   20.5934   17.8912 C   0  0  0  0  0  0
   13.6725   18.2399   17.2482 N   0  3  0  0  0  0
   13.2459   16.9372   17.4142 C   0  0  0  0  0  0
   12.0706   16.9899   18.1522 C   0  0  0  0  0  0
    9.9244   17.0746   20.8832 C   0  0  0  0  0  0
    9.9148   16.5567   22.1774 C   0  0  0  0  0  0
    9.2467   15.2486   22.3857 C   0  0  0  0  0  0
    9.8227   14.0075   22.1947 C   0  0  0  0  0  0
    8.8443   13.0948   22.4733 N   0  0  0  0  0  0
    8.9315   11.6477   22.4258 C   0  0  0  0  0  0
    7.7042   13.6769   22.8637 N   0  0  0  0  0  0
    7.9390   14.9764   22.8403 C   0  0  0  0  0  0
    6.8502   15.9499   23.2619 C   0  0  0  0  0  0
    7.3616   17.0802   23.7496 F   0  0  0  0  0  0
    6.0740   16.2708   22.2266 F   0  0  0  0  0  0
    6.0718   15.4339   24.2145 F   0  0  0  0  0  0
   13.2842   20.1009   26.1129 H   0  0  0  0  0  0
   12.9601   18.7141   27.1011 H   0  0  0  0  0  0
   14.6727   18.1079   23.8159 H   0  0  0  0  0  0
   16.5126   17.1784   22.5594 H   0  0  0  0  0  0
   18.0398   17.9092   23.0558 H   0  0  0  0  0  0
   17.6717   16.2384   23.4937 H   0  0  0  0  0  0
   17.5735   18.1093   27.7750 H   0  0  0  0  0  0
   15.2133   18.8496   28.0331 H   0  0  0  0  0  0
   12.6521   16.4350   24.8435 H   0  0  0  0  0  0
   11.9773   16.7557   26.3913 H   0  0  0  0  0  0
    9.7560   17.1553   25.2169 H   0  0  0  0  0  0
   10.4355   15.6433   24.6896 H   0  0  0  0  0  0
   11.6748   19.9150   21.4229 H   0  0  0  0  0  0
    9.7154   18.5192   18.6337 H   0  0  0  0  0  0
   10.6109   19.8982   19.1814 H   0  0  0  0  0  0
   13.8233   20.9642   17.4541 H   0  0  0  0  0  0
   12.0698   21.0842   17.3751 H   0  0  0  0  0  0
   12.8718   20.9184   18.9288 H   0  0  0  0  0  0
   13.8183   16.1148   17.0149 H   0  0  0  0  0  0
   11.4264   16.2007   18.5154 H   0  0  0  0  0  0
    9.4484   16.5288   20.0808 H   0  0  0  0  0  0
   10.8112   13.7062   21.8797 H   0  0  0  0  0  0
    9.8789   11.3383   21.9819 H   0  0  0  0  0  0
    8.1103   11.2533   21.8263 H   0  0  0  0  0  0
    8.8704   11.2456   23.4398 H   0  0  0  0  0  0
   14.5204   18.5260   16.7757 H   0  0  0  0  0  0
  1  2  2  0  0  0
  2 15  1  0  0  0
  2  3  1  0  0  0
  3  4  1  0  0  0
  3 12  1  0  0  0
  4  5  1  0  0  0
  4 37  1  0  0  0
  4 38  1  0  0  0
  5 11  1  0  0  0
  5  6  2  0  0  0
  6  7  1  0  0  0
  6 39  1  0  0  0
  7  8  1  0  0  0
  7  9  2  0  0  0
  8 40  1  0  0  0
  8 41  1  0  0  0
  8 42  1  0  0  0
  9 10  1  0  0  0
 10 11  2  0  0  0
 10 43  1  0  0  0
 11 44  1  0  0  0
 12 13  1  0  0  0
 12 45  1  0  0  0
 12 46  1  0  0  0
 13 14  1  0  0  0
 13 47  1  0  0  0
 13 48  1  0  0  0
 14 26  1  0  0  0
 14 15  2  0  0  0
 15 16  1  0  0  0
 16 17  2  0  0  0
 16 49  1  0  0  0
 17 18  1  0  0  0
 17 25  1  0  0  0
 18 19  1  0  0  0
 18 50  1  0  0  0
 18 51  1  0  0  0
 19 24  1  0  0  0
 19 20  1  0  0  0
 20 21  1  0  0  0
 20 22  2  0  0  0
 21 52  1  0  0  0
 21 53  1  0  0  0
 21 54  1  0  0  0
 22 23  1  0  0  0
 22 62  1  0  0  0
 23 24  2  0  0  0
 23 55  1  0  0  0
 24 56  1  0  0  0
 25 26  2  0  0  0
 25 57  1  0  0  0
 26 27  1  0  0  0
 27 32  1  0  0  0
 27 28  2  0  0  0
 28 29  1  0  0  0
 28 58  1  0  0  0
 29 30  1  0  0  0
 29 31  1  0  0  0
 30 59  1  0  0  0
 30 60  1  0  0  0
 30 61  1  0  0  0
 31 32  2  0  0  0
 32 33  1  0  0  0
 33 34  1  0  0  0
 33 35  1  0  0  0
 33 36  1  0  0  0
M  CHG  1  22   1
M  END
> <s_m_source_file>
/home/yujie/leadopt/data/result/selection/WDR5/lig_29.sdf

> <i_m_source_file_index>
1

> <i_lp_mmshare_version>
51139

> <i_f3d_flags>
0

> <s_epik_input>
W2NIXTFbY0hdbmMoW0NIM10pW2NIXWMxW0NIMl1OKFtDSDJdW0NIMl0yKUMoPU8pYyhjMjMpW2NIXWMoW0NIMl1uNGMoW0NIM10pbltjSF1bY0hdNClbY0hdYzMtYzVbY0hdbihbQ0gzXSluYzVDKEYpKEYpRg==

> <s_epik_cmdline>
J2VwaWtfcHl0aG9uJywgJy1waHQnLCAnMi4wJywgJy1waCcsICc3LjAnLCAnLXRuJywgJzgnLCAnLW1hJywgJzIwMCcsICctaW1hZScsICc8aW5maWxlLm1hZT4nLCAnLW9tYWUnLCAnPG91dGZpbGUubWFlPic=

> <r_lp_tautomer_probability>
1

> <r_epik_Ionization_Penalty>
  0.2024

> <r_epik_Ionization_Penalty_Charging>
  0.0000

> <r_epik_Ionization_Penalty_Neutral>
  0.2024

> <r_epik_State_Penalty>
  0.1858

> <r_epik_Charging_Adjusted_Penalty>
0.185841

> <i_epik_Tot_Q>
1

> <i_epik_Tot_abs_Q>
1

> <s_lp_Force_Field>
OPLS3e

> <r_lp_Energy>
49.9323

> <b_lp_Chiralities_Consistent>
1

> <s_lp_Variant>
/home/yujie/leadopt/data/result/selection/WDR5/lig_29.sdf:1-1

> <s_i_glide_gridfile>
glide-grid_WDR5

> <i_i_glide_lignum>
1

> <i_i_glide_rotatable_bonds>
6

> <r_i_docking_score>
-11.2406446693124

> <r_i_glide_ligand_efficiency>
-0.312240129703122

> <r_i_glide_ligand_efficiency_sa>
-1.0309941912336

> <r_i_glide_ligand_efficiency_ln>
-2.45240497972037

> <r_i_glide_gscore>
-11.4264856693124

> <r_i_glide_lipo>
-4.19629565917478

> <r_i_glide_hbond>
-0.32

> <r_i_glide_metal>
-0

> <r_i_glide_rewards>
-2.64648919523241

> <r_i_glide_evdw>
-57.8663024902344

> <r_i_glide_ecoul>
-11.8221216201782

> <r_i_glide_erotb>
0.415125521305754

> <r_i_glide_esite>
-0.0121929686724914

> <r_i_glide_emodel>
-118.777100316632

> <r_i_glide_energy>
-69.6884241104126

> <r_i_glide_einternal>
3.3750786781311

> <i_i_glide_confnum>
117

> <i_i_glide_posenum>
13

> <r_i_glide_eff_state_penalty>
0.185841

$$$$
