/home/yujie/leadopt/data/result/selection/WDR5/lig_11.sdf:1
                    3D
 Schrodinger Suite 2020-3.
 70 74  0  0  1  0            999 V2000
   12.8306   20.1184   23.6382 O   0  0  0  0  0  0
   12.1373   19.1392   23.9284 C   0  0  0  0  0  0
   12.1543   18.6157   25.1913 N   0  0  0  0  0  0
   12.9938   19.2465   26.2292 C   0  0  0  0  0  0
   14.4563   18.7956   26.3140 C   0  0  0  0  0  0
   15.1476   18.2337   25.2310 C   0  0  0  0  0  0
   16.5036   17.8879   25.3449 C   0  0  0  0  0  0
   17.2733   17.3604   24.3255 O   0  0  0  0  0  0
   16.7095   17.2146   23.0278 C   0  0  0  0  0  0
   17.1523   18.0950   26.5613 C   0  0  0  0  0  0
   16.4781   18.6414   27.6617 C   0  0  0  0  0  0
   17.0598   18.8911   28.8884 O   0  0  0  0  0  0
   18.4570   18.6659   29.0482 C   0  0  0  0  0  0
   15.1318   18.9764   27.5234 C   0  0  0  0  0  0
   11.2796   17.5116   25.6365 C   0  0  0  0  0  0
   10.8405   16.5395   24.5249 C   0  0  0  0  0  0
   10.6384   17.2010   23.1733 C   0  0  0  0  0  0
   11.2599   18.4338   22.9160 C   0  0  0  0  0  0
   11.1773   19.0032   21.6371 C   0  0  0  0  0  0
   10.4928   18.3597   20.6102 C   0  0  0  0  0  0
   10.5389   18.9152   19.1939 C   0  0  0  0  0  0
   11.7238   18.4959   18.4460 N   0  3  0  0  0  0
   12.6654   19.3099   17.8336 C   0  0  0  0  0  0
   13.5996   18.5022   17.2024 N   0  0  0  0  0  0
   14.7570   18.9476   16.4415 C   0  0  0  0  0  0
   13.2382   17.1817   17.4259 C   0  0  0  0  0  0
   12.0776   17.1800   18.1838 C   0  0  0  0  0  0
   12.6561   20.6636   17.8264 N   0  0  0  0  0  0
    9.8272   17.1666   20.8787 C   0  0  0  0  0  0
    9.9025   16.5841   22.1442 C   0  0  0  0  0  0
    9.2562   15.2569   22.3206 C   0  0  0  0  0  0
    9.8865   14.0237   22.3131 C   0  0  0  0  0  0
    8.8974   13.0970   22.4858 N   0  0  0  0  0  0
    9.0295   11.6525   22.5499 C   0  0  0  0  0  0
    7.6917   13.6597   22.6246 N   0  0  0  0  0  0
    7.8939   14.9581   22.5228 C   0  0  0  0  0  0
    6.7142   15.9007   22.6161 C   0  0  0  0  0  0
   12.9919   20.3318   26.1044 H   0  0  0  0  0  0
   12.5276   19.0758   27.2006 H   0  0  0  0  0  0
   14.6396   18.0883   24.2932 H   0  0  0  0  0  0
   17.4646   16.8216   22.3466 H   0  0  0  0  0  0
   15.8745   16.5141   23.0347 H   0  0  0  0  0  0
   16.3719   18.1722   22.6291 H   0  0  0  0  0  0
   18.1960   17.8293   26.6253 H   0  0  0  0  0  0
   18.7536   18.9448   30.0588 H   0  0  0  0  0  0
   18.7132   17.6145   28.9088 H   0  0  0  0  0  0
   19.0428   19.2713   28.3551 H   0  0  0  0  0  0
   14.6185   19.4105   28.3685 H   0  0  0  0  0  0
   11.5983   17.0356   26.5649 H   0  0  0  0  0  0
   10.3508   18.0040   25.9291 H   0  0  0  0  0  0
    9.9414   16.0087   24.8418 H   0  0  0  0  0  0
   11.6018   15.7643   24.4270 H   0  0  0  0  0  0
   11.6731   19.9378   21.4147 H   0  0  0  0  0  0
    9.6730   18.5899   18.6270 H   0  0  0  0  0  0
   10.4779   20.0039   19.2166 H   0  0  0  0  0  0
   14.4271   19.3075   15.4667 H   0  0  0  0  0  0
   15.2697   19.7465   16.9790 H   0  0  0  0  0  0
   15.4504   18.1204   16.2905 H   0  0  0  0  0  0
   13.8253   16.3646   17.0273 H   0  0  0  0  0  0
   11.4755   16.3633   18.5599 H   0  0  0  0  0  0
   12.8919   21.1724   16.9866 H   0  0  0  0  0  0
    9.2953   16.6628   20.0860 H   0  0  0  0  0  0
   10.9180   13.7234   22.1896 H   0  0  0  0  0  0
   10.0543   11.3571   22.3180 H   0  0  0  0  0  0
    8.3546   11.1920   21.8281 H   0  0  0  0  0  0
    8.7868   11.3072   23.5554 H   0  0  0  0  0  0
    7.0170   16.9451   22.5323 H   0  0  0  0  0  0
    5.9857   15.7177   21.8248 H   0  0  0  0  0  0
    6.1896   15.7973   23.5668 H   0  0  0  0  0  0
   12.3402   21.1773   18.6402 H   0  0  0  0  0  0
  1  2  2  0  0  0
  2 18  1  0  0  0
  2  3  1  0  0  0
  3  4  1  0  0  0
  3 15  1  0  0  0
  4  5  1  0  0  0
  4 38  1  0  0  0
  4 39  1  0  0  0
  5 14  1  0  0  0
  5  6  2  0  0  0
  6  7  1  0  0  0
  6 40  1  0  0  0
  7  8  1  0  0  0
  7 10  2  0  0  0
  8  9  1  0  0  0
  9 41  1  0  0  0
  9 42  1  0  0  0
  9 43  1  0  0  0
 10 11  1  0  0  0
 10 44  1  0  0  0
 11 12  1  0  0  0
 11 14  2  0  0  0
 12 13  1  0  0  0
 13 45  1  0  0  0
 13 46  1  0  0  0
 13 47  1  0  0  0
 14 48  1  0  0  0
 15 16  1  0  0  0
 15 49  1  0  0  0
 15 50  1  0  0  0
 16 17  1  0  0  0
 16 51  1  0  0  0
 16 52  1  0  0  0
 17 30  1  0  0  0
 17 18  2  0  0  0
 18 19  1  0  0  0
 19 20  2  0  0  0
 19 53  1  0  0  0
 20 21  1  0  0  0
 20 29  1  0  0  0
 21 22  1  0  0  0
 21 54  1  0  0  0
 21 55  1  0  0  0
 22 27  1  0  0  0
 22 23  2  0  0  0
 23 24  1  0  0  0
 23 28  1  0  0  0
 24 25  1  0  0  0
 24 26  1  0  0  0
 25 56  1  0  0  0
 25 57  1  0  0  0
 25 58  1  0  0  0
 26 27  2  0  0  0
 26 59  1  0  0  0
 27 60  1  0  0  0
 28 61  1  0  0  0
 28 70  1  0  0  0
 29 30  2  0  0  0
 29 62  1  0  0  0
 30 31  1  0  0  0
 31 36  1  0  0  0
 31 32  2  0  0  0
 32 33  1  0  0  0
 32 63  1  0  0  0
 33 34  1  0  0  0
 33 35  1  0  0  0
 34 64  1  0  0  0
 34 65  1  0  0  0
 34 66  1  0  0  0
 35 36  2  0  0  0
 36 37  1  0  0  0
 37 67  1  0  0  0
 37 68  1  0  0  0
 37 69  1  0  0  0
M  CHG  1  22   1
M  END
> <s_m_source_file>
/home/yujie/leadopt/data/result/selection/WDR5/lig_11.sdf

> <i_m_source_file_index>
1

> <i_lp_mmshare_version>
51139

> <i_f3d_flags>
0

> <s_epik_input>
W0NIM11PYyhbY0hdMSlbY0hdYyhPW0NIM10pW2NIXWMxW0NIMl1OKFtDSDJdW0NIMl0yKUMoPU8pYyhjMjMpW2NIXWMoW0NIMl1uNC9jKD1OL1tIXSluKFtDSDNdKVtjSF1bY0hdNClbY0hdYzMtYzVbY0hdbihbQ0gzXSluYzVbQ0gzXQ==

> <s_epik_cmdline>
J2VwaWtfcHl0aG9uJywgJy1waHQnLCAnMi4wJywgJy1waCcsICc3LjAnLCAnLXRuJywgJzgnLCAnLW1hJywgJzIwMCcsICctaW1hZScsICc8aW5maWxlLm1hZT4nLCAnLW9tYWUnLCAnPG91dGZpbGUubWFlPic=

> <r_lp_tautomer_probability>
1

> <r_epik_Ionization_Penalty>
  0.0007

> <r_epik_Ionization_Penalty_Charging>
  0.0000

> <r_epik_Ionization_Penalty_Neutral>
  0.0007

> <r_epik_State_Penalty>
 -0.0000

> <r_epik_Charging_Adjusted_Penalty>
0

> <i_epik_Tot_Q>
1

> <i_epik_Tot_abs_Q>
1

> <s_lp_Force_Field>
OPLS3e

> <r_lp_Energy>
46.1399

> <b_lp_Chiralities_Consistent>
1

> <s_lp_Variant>
/home/yujie/leadopt/data/result/selection/WDR5/lig_11.sdf:1-1

> <s_i_glide_gridfile>
glide-grid_WDR5

> <i_i_glide_lignum>
1

> <i_i_glide_rotatable_bonds>
7

> <r_i_docking_score>
-11.5070953752276

> <r_i_glide_ligand_efficiency>
-0.311002577708853

> <r_i_glide_ligand_efficiency_sa>
-1.03632958411229

> <r_i_glide_ligand_efficiency_ln>
-2.4956192222968

> <r_i_glide_gscore>
-11.5070953752276

> <r_i_glide_lipo>
-4.1852967952013

> <r_i_glide_hbond>
-0.542241451978611

> <r_i_glide_metal>
-0

> <r_i_glide_rewards>
-2.50458725865092

> <r_i_glide_evdw>
-62.0589218139648

> <r_i_glide_ecoul>
-10.4066343307495

> <r_i_glide_erotb>
0.405948276165065

> <r_i_glide_esite>
-0.0169769052511474

> <r_i_glide_emodel>
-122.665028099787

> <r_i_glide_energy>
-72.4655561447144

> <r_i_glide_einternal>
8.20047283172607

> <i_i_glide_confnum>
61

> <i_i_glide_posenum>
194

> <r_i_glide_eff_state_penalty>
-0

$$$$
