/home/yujie/leadopt/data/result/selection/WDR5/lig_25.sdf:1
                    3D
 Schrodinger Suite 2020-3.
 58 62  0  0  1  0            999 V2000
   12.4729   20.4282   23.8266 O   0  0  0  0  0  0
   12.0726   19.2723   23.9895 C   0  0  0  0  0  0
   12.2800   18.6084   25.1693 N   0  0  0  0  0  0
   13.2174   19.1675   26.1614 C   0  0  0  0  0  0
   14.6642   18.6760   26.0756 C   0  0  0  0  0  0
   15.4714   18.7028   27.2178 C   0  0  0  0  0  0
   16.7772   18.2175   27.1296 C   0  0  0  0  0  0
   17.2423   17.7184   25.9128 C   0  0  0  0  0  0
   16.3796   17.7184   24.8154 C   0  0  0  0  0  0
   15.1054   18.1798   24.8847 N   0  0  0  0  0  0
   11.8860   17.1992   25.3864 C   0  0  0  0  0  0
   10.5873   16.8240   24.6561 C   0  0  0  0  0  0
   10.6016   17.3187   23.2196 C   0  0  0  0  0  0
   11.2770   18.5183   22.9381 C   0  0  0  0  0  0
   11.2299   19.0594   21.6449 C   0  0  0  0  0  0
   10.6360   18.3540   20.5986 C   0  0  0  0  0  0
   10.7099   18.8839   19.1694 C   0  0  0  0  0  0
   11.8382   18.3466   18.4089 N   0  0  0  0  0  0
   12.8388   19.0253   17.7391 C   0  0  0  0  0  0
   12.9256   20.5326   17.6446 C   0  0  0  0  0  0
   13.6869   18.2201   17.1381 N   0  0  0  0  0  0
   13.2527   17.0020   17.3970 C   0  0  0  0  0  0
   12.1115   17.0226   18.1767 C   0  0  0  0  0  0
   10.0262   17.1284   20.8640 C   0  0  0  0  0  0
    9.9952   16.6163   22.1626 C   0  0  0  0  0  0
    9.3424   15.2977   22.3787 C   0  0  0  0  0  0
    9.9333   14.0558   22.2260 C   0  0  0  0  0  0
    8.9678   13.1395   22.5315 N   0  0  0  0  0  0
    9.0699   11.6915   22.5254 C   0  0  0  0  0  0
    7.8156   13.7175   22.8829 N   0  0  0  0  0  0
    8.0320   15.0193   22.8236 C   0  0  0  0  0  0
    6.9222   15.9907   23.1992 C   0  0  0  0  0  0
    6.0726   15.4573   24.0777 F   0  0  0  0  0  0
    7.4096   17.0990   23.7554 F   0  0  0  0  0  0
    6.2200   16.3523   22.1266 F   0  0  0  0  0  0
   13.2207   20.2592   26.1435 H   0  0  0  0  0  0
   12.8399   18.9005   27.1489 H   0  0  0  0  0  0
   15.0998   19.0936   28.1533 H   0  0  0  0  0  0
   17.4243   18.2314   27.9943 H   0  0  0  0  0  0
   18.2478   17.3398   25.8270 H   0  0  0  0  0  0
   16.7011   17.3375   23.8568 H   0  0  0  0  0  0
   12.6503   16.5788   24.9140 H   0  0  0  0  0  0
   11.9257   16.9067   26.4363 H   0  0  0  0  0  0
    9.7349   17.2469   25.1884 H   0  0  0  0  0  0
   10.4599   15.7425   24.7030 H   0  0  0  0  0  0
   11.6912   20.0115   21.4263 H   0  0  0  0  0  0
   10.7664   19.9732   19.1780 H   0  0  0  0  0  0
    9.7955   18.6426   18.6273 H   0  0  0  0  0  0
   13.8520   20.8661   17.1762 H   0  0  0  0  0  0
   12.8853   20.9931   18.6270 H   0  0  0  0  0  0
   12.1058   20.9454   17.0554 H   0  0  0  0  0  0
   13.7553   16.1198   17.0265 H   0  0  0  0  0  0
   11.4918   16.2357   18.5794 H   0  0  0  0  0  0
    9.5878   16.5651   20.0535 H   0  0  0  0  0  0
   10.9238   13.7457   21.9237 H   0  0  0  0  0  0
   10.0727   11.3844   22.2246 H   0  0  0  0  0  0
    8.8751   11.3074   23.5277 H   0  0  0  0  0  0
    8.3432   11.2784   21.8264 H   0  0  0  0  0  0
  1  2  2  0  0  0
  2 14  1  0  0  0
  2  3  1  0  0  0
  3  4  1  0  0  0
  3 11  1  0  0  0
  4  5  1  0  0  0
  4 36  1  0  0  0
  4 37  1  0  0  0
  5 10  1  0  0  0
  5  6  2  0  0  0
  6  7  1  0  0  0
  6 38  1  0  0  0
  7  8  2  0  0  0
  7 39  1  0  0  0
  8  9  1  0  0  0
  8 40  1  0  0  0
  9 10  2  0  0  0
  9 41  1  0  0  0
 11 12  1  0  0  0
 11 42  1  0  0  0
 11 43  1  0  0  0
 12 13  1  0  0  0
 12 44  1  0  0  0
 12 45  1  0  0  0
 13 25  1  0  0  0
 13 14  2  0  0  0
 14 15  1  0  0  0
 15 16  2  0  0  0
 15 46  1  0  0  0
 16 17  1  0  0  0
 16 24  1  0  0  0
 17 18  1  0  0  0
 17 47  1  0  0  0
 17 48  1  0  0  0
 18 23  1  0  0  0
 18 19  1  0  0  0
 19 20  1  0  0  0
 19 21  2  0  0  0
 20 49  1  0  0  0
 20 50  1  0  0  0
 20 51  1  0  0  0
 21 22  1  0  0  0
 22 23  2  0  0  0
 22 52  1  0  0  0
 23 53  1  0  0  0
 24 25  2  0  0  0
 24 54  1  0  0  0
 25 26  1  0  0  0
 26 31  1  0  0  0
 26 27  2  0  0  0
 27 28  1  0  0  0
 27 55  1  0  0  0
 28 29  1  0  0  0
 28 30  1  0  0  0
 29 56  1  0  0  0
 29 57  1  0  0  0
 29 58  1  0  0  0
 30 31  2  0  0  0
 31 32  1  0  0  0
 32 33  1  0  0  0
 32 34  1  0  0  0
 32 35  1  0  0  0
M  END
> <s_m_source_file>
/home/yujie/leadopt/data/result/selection/WDR5/lig_25.sdf

> <i_m_source_file_index>
1

> <i_lp_mmshare_version>
51139

> <i_f3d_flags>
0

> <s_epik_input>
bjFbY0hdW2NIXVtjSF1bY0hdYzFbQ0gyXU4oW0NIMl1bQ0gyXTIpQyg9TyljKGMyMylbY0hdYyhbQ0gyXW40YyhbQ0gzXSluW2NIXVtjSF00KVtjSF1jMy1jNVtjSF1uKFtDSDNdKW5jNUMoRikoRilG

> <s_epik_cmdline>
J2VwaWtfcHl0aG9uJywgJy1waHQnLCAnMi4wJywgJy1waCcsICc3LjAnLCAnLXRuJywgJzgnLCAnLW1hJywgJzIwMCcsICctaW1hZScsICc8aW5maWxlLm1hZT4nLCAnLW9tYWUnLCAnPG91dGZpbGUubWFlPic=

> <r_lp_tautomer_probability>
1

> <r_epik_Ionization_Penalty>
  0.8316

> <r_epik_Ionization_Penalty_Charging>
  0.8315

> <r_epik_Ionization_Penalty_Neutral>
  0.0001

> <r_epik_State_Penalty>
  0.8654

> <r_epik_Charging_Adjusted_Penalty>
1.69691

> <i_epik_Tot_Q>
0

> <i_epik_Tot_abs_Q>
0

> <s_lp_Force_Field>
OPLS3e

> <r_lp_Energy>
48.8447

> <b_lp_Chiralities_Consistent>
1

> <s_lp_Variant>
/home/yujie/leadopt/data/result/selection/WDR5/lig_25.sdf:1-2

> <s_i_glide_gridfile>
glide-grid_WDR5

> <i_i_glide_lignum>
2

> <i_i_glide_rotatable_bonds>
6

> <r_i_docking_score>
-9.83224011444832

> <r_i_glide_ligand_efficiency>
-0.280921146127095

> <r_i_glide_ligand_efficiency_sa>
-0.918911695826889

> <r_i_glide_ligand_efficiency_ln>
-2.15839491993364

> <r_i_glide_gscore>
-10.6976571144483

> <r_i_glide_lipo>
-3.86386143758248

> <r_i_glide_hbond>
-0.32

> <r_i_glide_metal>
-0

> <r_i_glide_rewards>
-2.67333032065092

> <r_i_glide_evdw>
-56.166675567627

> <r_i_glide_ecoul>
-9.67015933990479

> <r_i_glide_erotb>
0.43920307282108

> <r_i_glide_esite>
-0.0208107496689342

> <r_i_glide_emodel>
-105.009579504965

> <r_i_glide_energy>
-65.8368349075317

> <r_i_glide_einternal>
4.04605531692505

> <i_i_glide_confnum>
67

> <i_i_glide_posenum>
41

> <r_i_glide_eff_state_penalty>
0.865417

$$$$
