/home/yujie/leadopt/data/result/selection/WDR5/lig_39.sdf:1
                    3D
 Schrodinger Suite 2020-3.
 65 69  0  0  1  0            999 V2000
   12.5921   20.1610   23.8265 O   0  0  0  0  0  0
   12.0789   19.0541   23.9910 C   0  0  0  0  0  0
   12.2487   18.3433   25.1576 N   0  0  0  0  0  0
   13.2254   18.7692   26.1951 C   0  0  2  0  0  0
   13.0582   20.2204   26.7116 C   0  0  0  0  0  0
   14.6904   18.3933   25.9182 C   0  0  0  0  0  0
   15.1682   18.0462   24.6451 C   0  0  0  0  0  0
   16.5107   17.7192   24.4739 C   0  0  0  0  0  0
   16.9146   17.4800   23.1769 O   0  0  0  0  0  0
   18.2984   17.3585   22.8953 C   0  0  0  0  0  0
   17.3468   17.7182   25.6049 C   0  0  0  0  0  0
   16.7995   18.0434   26.8464 C   0  0  0  0  0  0
   15.4955   18.3761   27.0122 N   0  0  0  0  0  0
   11.8309   16.9239   25.2719 C   0  0  0  0  0  0
   10.5227   16.6234   24.5279 C   0  0  0  0  0  0
   10.5658   17.1822   23.1201 C   0  0  0  0  0  0
   11.2470   18.3891   22.9119 C   0  0  0  0  0  0
   11.1956   19.0088   21.6538 C   0  0  0  0  0  0
   10.5922   18.3746   20.5696 C   0  0  0  0  0  0
   10.6350   19.0107   19.1896 C   0  0  0  0  0  0
   11.7889   18.5889   18.4126 N   0  0  0  0  0  0
   12.8729   19.3439   18.0353 C   0  0  0  0  0  0
   13.7689   18.6689   17.3549 N   0  0  0  0  0  0
   13.2787   17.4425   17.2810 C   0  0  0  0  0  0
   12.0521   17.3390   17.9168 C   0  0  0  0  0  0
    9.9953   17.1300   20.7535 C   0  0  0  0  0  0
    9.9678   16.5428   22.0205 C   0  0  0  0  0  0
    9.2392   15.2631   22.1865 C   0  0  0  0  0  0
    9.7544   13.9765   22.2311 C   0  0  0  0  0  0
    8.6848   13.1585   22.4683 N   0  0  0  0  0  0
    8.6751   11.7092   22.6485 C   0  0  0  0  0  0
    8.0723   11.3161   24.0134 C   0  0  0  0  0  0
    7.5374   13.8448   22.5500 N   0  0  0  0  0  0
    7.8574   15.1126   22.3846 C   0  0  0  0  0  0
    6.7822   16.1853   22.4481 C   0  0  0  0  0  0
    7.1693   17.3177   21.8658 F   0  0  0  0  0  0
    5.6726   15.7981   21.8274 F   0  0  0  0  0  0
    6.4720   16.4739   23.7126 F   0  0  0  0  0  0
   12.9677   18.1651   27.0668 H   0  0  0  0  0  0
   13.5408   20.3513   27.6789 H   0  0  0  0  0  0
   13.5056   20.9472   26.0352 H   0  0  0  0  0  0
   12.0075   20.4838   26.8373 H   0  0  0  0  0  0
   14.5334   18.0534   23.7746 H   0  0  0  0  0  0
   18.4297   17.1779   21.8276 H   0  0  0  0  0  0
   18.8501   18.2641   23.1562 H   0  0  0  0  0  0
   18.7279   16.5152   23.4252 H   0  0  0  0  0  0
   18.4079   17.5228   25.5473 H   0  0  0  0  0  0
   17.4165   18.0667   27.7340 H   0  0  0  0  0  0
   12.5827   16.3243   24.7542 H   0  0  0  0  0  0
   11.8582   16.5521   26.2967 H   0  0  0  0  0  0
   10.3631   15.5451   24.5263 H   0  0  0  0  0  0
    9.6795   17.0442   25.0766 H   0  0  0  0  0  0
   11.6725   19.9651   21.4894 H   0  0  0  0  0  0
    9.7324   18.7735   18.6247 H   0  0  0  0  0  0
   10.6535   20.0967   19.2747 H   0  0  0  0  0  0
   12.9250   20.3895   18.3003 H   0  0  0  0  0  0
   13.8030   16.6452   16.7740 H   0  0  0  0  0  0
   11.3663   16.5184   18.0631 H   0  0  0  0  0  0
    9.5401   16.6263   19.9130 H   0  0  0  0  0  0
   10.7570   13.5811   22.1459 H   0  0  0  0  0  0
    8.1062   11.2730   21.8264 H   0  0  0  0  0  0
    9.6996   11.3331   22.5666 H   0  0  0  0  0  0
    8.0730   10.2358   24.1525 H   0  0  0  0  0  0
    8.6569   11.7421   24.8301 H   0  0  0  0  0  0
    7.0437   11.6574   24.1205 H   0  0  0  0  0  0
  1  2  2  0  0  0
  2 17  1  0  0  0
  2  3  1  0  0  0
  3  4  1  0  0  0
  3 14  1  0  0  0
  4 39  1  0  0  0
  4  5  1  0  0  0
  4  6  1  0  0  0
  5 40  1  0  0  0
  5 41  1  0  0  0
  5 42  1  0  0  0
  6 13  1  0  0  0
  6  7  2  0  0  0
  7  8  1  0  0  0
  7 43  1  0  0  0
  8  9  1  0  0  0
  8 11  2  0  0  0
  9 10  1  0  0  0
 10 44  1  0  0  0
 10 45  1  0  0  0
 10 46  1  0  0  0
 11 12  1  0  0  0
 11 47  1  0  0  0
 12 13  2  0  0  0
 12 48  1  0  0  0
 14 15  1  0  0  0
 14 49  1  0  0  0
 14 50  1  0  0  0
 15 16  1  0  0  0
 15 51  1  0  0  0
 15 52  1  0  0  0
 16 27  1  0  0  0
 16 17  2  0  0  0
 17 18  1  0  0  0
 18 19  2  0  0  0
 18 53  1  0  0  0
 19 20  1  0  0  0
 19 26  1  0  0  0
 20 21  1  0  0  0
 20 54  1  0  0  0
 20 55  1  0  0  0
 21 25  1  0  0  0
 21 22  1  0  0  0
 22 23  2  0  0  0
 22 56  1  0  0  0
 23 24  1  0  0  0
 24 25  2  0  0  0
 24 57  1  0  0  0
 25 58  1  0  0  0
 26 27  2  0  0  0
 26 59  1  0  0  0
 27 28  1  0  0  0
 28 34  1  0  0  0
 28 29  2  0  0  0
 29 30  1  0  0  0
 29 60  1  0  0  0
 30 31  1  0  0  0
 30 33  1  0  0  0
 31 32  1  0  0  0
 31 61  1  0  0  0
 31 62  1  0  0  0
 32 63  1  0  0  0
 32 64  1  0  0  0
 32 65  1  0  0  0
 33 34  2  0  0  0
 34 35  1  0  0  0
 35 36  1  0  0  0
 35 37  1  0  0  0
 35 38  1  0  0  0
M  END
> <s_m_source_file>
/home/yujie/leadopt/data/result/selection/WDR5/lig_39.sdf

> <i_m_source_file_index>
1

> <i_lp_mmshare_version>
51139

> <i_f3d_flags>
0

> <s_epik_input>
bjFbY0hdW2NIXWMoT1tDSDNdKVtjSF1jMVtDQEBIXShbQ0gzXSlOKFtDSDJdW0NIMl0yKUMoPU8pYyhjMjMpW2NIXWMoW0NIMl1uNFtjSF1uW2NIXVtjSF00KVtjSF1jMy1jNVtjSF1uKFtDSDJdW0NIM10pbmM1QyhGKShGKUY=

> <s_epik_cmdline>
J2VwaWtfcHl0aG9uJywgJy1waHQnLCAnMi4wJywgJy1waCcsICc3LjAnLCAnLXRuJywgJzgnLCAnLW1hJywgJzIwMCcsICctaW1hZScsICc8aW5maWxlLm1hZT4nLCAnLW9tYWUnLCAnPG91dGZpbGUubWFlPic=

> <r_lp_tautomer_probability>
1

> <r_epik_Ionization_Penalty>
  0.3434

> <r_epik_Ionization_Penalty_Charging>
  0.3321

> <r_epik_Ionization_Penalty_Neutral>
  0.0113

> <r_epik_State_Penalty>
  0.3359

> <r_epik_Charging_Adjusted_Penalty>
0.668063

> <i_epik_Tot_Q>
0

> <i_epik_Tot_abs_Q>
0

> <s_lp_Force_Field>
OPLS3e

> <r_lp_Energy>
55.0673

> <b_lp_Chiralities_Consistent>
1

> <s_lp_Variant>
/home/yujie/leadopt/data/result/selection/WDR5/lig_39.sdf:1-1

> <s_i_glide_gridfile>
glide-grid_WDR5

> <i_i_glide_lignum>
1

> <i_i_glide_rotatable_bonds>
8

> <r_i_docking_score>
-10.5239985605254

> <r_i_glide_ligand_efficiency>
-0.276947330540141

> <r_i_glide_ligand_efficiency_sa>
-0.931090113125604

> <r_i_glide_ligand_efficiency_ln>
-2.26928367432127

> <r_i_glide_gscore>
-10.8599475605254

> <r_i_glide_lipo>
-4.25105812134558

> <r_i_glide_hbond>
-0.32

> <r_i_glide_metal>
-0

> <r_i_glide_rewards>
-2.5037074535847

> <r_i_glide_evdw>
-62.8694877624512

> <r_i_glide_ecoul>
-6.7709789276123

> <r_i_glide_erotb>
0.373939241669329

> <r_i_glide_esite>
0

> <r_i_glide_emodel>
-107.097091883639

> <r_i_glide_energy>
-69.6404666900635

> <r_i_glide_einternal>
9.39479637145996

> <i_i_glide_confnum>
70

> <i_i_glide_posenum>
53

> <r_i_glide_eff_state_penalty>
0.335949

$$$$
