/home/yujie/leadopt/data/result/selection/WDR5/lig_3.sdf:1
                    3D
 Schrodinger Suite 2020-3.
 68 72  0  0  1  0            999 V2000
   12.8731   20.2212   23.7754 O   0  0  0  0  0  0
   12.2055   19.2365   24.0915 C   0  0  0  0  0  0
   12.2359   18.7586   25.3723 N   0  0  0  0  0  0
   13.0878   19.4188   26.3810 C   0  0  0  0  0  0
   14.5331   18.9177   26.4802 C   0  0  0  0  0  0
   15.2197   19.0942   27.6842 C   0  0  0  0  0  0
   16.5513   18.7027   27.8243 C   0  0  0  0  0  0
   17.1475   18.9522   29.0447 O   0  0  0  0  0  0
   18.5282   18.6531   29.2134 C   0  0  0  0  0  0
   17.1969   18.1027   26.7335 C   0  0  0  0  0  0
   16.5359   17.9023   25.5229 C   0  0  0  0  0  0
   17.2727   17.3184   24.5087 O   0  0  0  0  0  0
   16.6826   17.1491   23.2261 C   0  0  0  0  0  0
   15.1978   18.3089   25.4063 C   0  0  0  0  0  0
   11.3893   17.6520   25.8543 C   0  0  0  0  0  0
   11.0196   16.6209   24.7752 C   0  0  0  0  0  0
   10.7838   17.2244   23.3988 C   0  0  0  0  0  0
   11.3533   18.4720   23.0989 C   0  0  0  0  0  0
   11.2440   18.9953   21.8006 C   0  0  0  0  0  0
   10.5957   18.2827   20.7936 C   0  0  0  0  0  0
   10.5627   18.8123   19.3628 C   0  0  0  0  0  0
   11.7106   18.4142   18.5466 N   0  3  0  0  0  0
   12.5862   19.2467   17.8649 C   0  0  0  0  0  0
   13.5048   18.4607   17.1877 N   0  0  0  0  0  0
   14.6045   18.9364   16.3634 C   0  0  0  0  0  0
   13.1874   17.1320   17.4268 C   0  0  0  0  0  0
   12.0729   17.1061   18.2506 C   0  0  0  0  0  0
   12.5316   20.5997   17.8267 N   0  0  0  0  0  0
    9.9957   17.0648   21.1059 C   0  0  0  0  0  0
   10.0721   16.5355   22.3965 C   0  0  0  0  0  0
    9.4340   15.2238   22.6801 C   0  0  0  0  0  0
    8.2102   15.1346   23.3629 C   0  0  0  0  0  0
    7.5273   16.2600   23.7457 O   0  0  0  0  0  0
    7.6728   13.8883   23.6805 C   0  0  0  0  0  0
    8.3318   12.7206   23.3060 C   0  0  0  0  0  0
    7.7910   11.5174   23.6034 F   0  0  0  0  0  0
    9.5437   12.7967   22.6262 C   0  0  0  0  0  0
   10.0873   14.0426   22.3106 C   0  0  0  0  0  0
   13.1231   20.4968   26.2058 H   0  0  0  0  0  0
   12.6160   19.3077   27.3590 H   0  0  0  0  0  0
   14.7281   19.5656   28.5218 H   0  0  0  0  0  0
   18.8369   18.9328   30.2212 H   0  0  0  0  0  0
   18.7258   17.5872   29.0908 H   0  0  0  0  0  0
   19.1468   19.2169   28.5133 H   0  0  0  0  0  0
   18.2274   17.7917   26.7989 H   0  0  0  0  0  0
   17.3964   16.6625   22.5614 H   0  0  0  0  0  0
   15.7961   16.5176   23.2766 H   0  0  0  0  0  0
   16.4137   18.1091   22.7808 H   0  0  0  0  0  0
   14.6805   18.1711   24.4719 H   0  0  0  0  0  0
   11.7234   17.2216   26.7987 H   0  0  0  0  0  0
   10.4367   18.1144   26.1186 H   0  0  0  0  0  0
   10.1586   16.0498   25.1206 H   0  0  0  0  0  0
   11.8296   15.8941   24.7030 H   0  0  0  0  0  0
   11.6767   19.9540   21.5507 H   0  0  0  0  0  0
    9.6725   18.4601   18.8512 H   0  0  0  0  0  0
   10.4734   19.8995   19.3724 H   0  0  0  0  0  0
   14.2086   19.3309   15.4281 H   0  0  0  0  0  0
   15.1498   19.7185   16.8934 H   0  0  0  0  0  0
   15.2897   18.1183   16.1377 H   0  0  0  0  0  0
   13.7661   16.3286   16.9908 H   0  0  0  0  0  0
   11.5095   16.2745   18.6507 H   0  0  0  0  0  0
   12.6827   21.0906   16.9582 H   0  0  0  0  0  0
    9.4748   16.5185   20.3344 H   0  0  0  0  0  0
    6.7081   16.0586   24.2031 H   0  0  0  0  0  0
    6.7456   13.8163   24.2265 H   0  0  0  0  0  0
   10.0645   11.8897   22.3512 H   0  0  0  0  0  0
   11.0370   14.0866   21.7962 H   0  0  0  0  0  0
   12.2573   21.1255   18.6477 H   0  0  0  0  0  0
  1  2  2  0  0  0
  2 18  1  0  0  0
  2  3  1  0  0  0
  3  4  1  0  0  0
  3 15  1  0  0  0
  4  5  1  0  0  0
  4 39  1  0  0  0
  4 40  1  0  0  0
  5 14  1  0  0  0
  5  6  2  0  0  0
  6  7  1  0  0  0
  6 41  1  0  0  0
  7  8  1  0  0  0
  7 10  2  0  0  0
  8  9  1  0  0  0
  9 42  1  0  0  0
  9 43  1  0  0  0
  9 44  1  0  0  0
 10 11  1  0  0  0
 10 45  1  0  0  0
 11 12  1  0  0  0
 11 14  2  0  0  0
 12 13  1  0  0  0
 13 46  1  0  0  0
 13 47  1  0  0  0
 13 48  1  0  0  0
 14 49  1  0  0  0
 15 16  1  0  0  0
 15 50  1  0  0  0
 15 51  1  0  0  0
 16 17  1  0  0  0
 16 52  1  0  0  0
 16 53  1  0  0  0
 17 30  1  0  0  0
 17 18  2  0  0  0
 18 19  1  0  0  0
 19 20  2  0  0  0
 19 54  1  0  0  0
 20 21  1  0  0  0
 20 29  1  0  0  0
 21 22  1  0  0  0
 21 55  1  0  0  0
 21 56  1  0  0  0
 22 27  1  0  0  0
 22 23  2  0  0  0
 23 24  1  0  0  0
 23 28  1  0  0  0
 24 25  1  0  0  0
 24 26  1  0  0  0
 25 57  1  0  0  0
 25 58  1  0  0  0
 25 59  1  0  0  0
 26 27  2  0  0  0
 26 60  1  0  0  0
 27 61  1  0  0  0
 28 62  1  0  0  0
 28 68  1  0  0  0
 29 30  2  0  0  0
 29 63  1  0  0  0
 30 31  1  0  0  0
 31 38  1  0  0  0
 31 32  2  0  0  0
 32 33  1  0  0  0
 32 34  1  0  0  0
 33 64  1  0  0  0
 34 35  2  0  0  0
 34 65  1  0  0  0
 35 36  1  0  0  0
 35 37  1  0  0  0
 37 38  2  0  0  0
 37 66  1  0  0  0
 38 67  1  0  0  0
M  CHG  1  22   1
M  END
> <s_m_source_file>
/home/yujie/leadopt/data/result/selection/WDR5/lig_3.sdf

> <i_m_source_file_index>
1

> <i_lp_mmshare_version>
51139

> <i_f3d_flags>
0

> <s_epik_input>
W0NIM11PYyhbY0hdMSlbY0hdYyhPW0NIM10pW2NIXWMxW0NIMl1OKFtDSDJdW0NIMl0yKUMoPU8pYyhjMjMpW2NIXWMoW0NIMl1uNC9jKD1OL1tIXSluKFtDSDNdKVtjSF1bY0hdNClbY0hdYzMtYzVjKFtPSF0pW2NIXWMoRilbY0hdW2NIXTU=

> <s_epik_cmdline>
J2VwaWtfcHl0aG9uJywgJy1waHQnLCAnMi4wJywgJy1waCcsICc3LjAnLCAnLXRuJywgJzgnLCAnLW1hJywgJzIwMCcsICctaW1hZScsICc8aW5maWxlLm1hZT4nLCAnLW9tYWUnLCAnPG91dGZpbGUubWFlPic=

> <r_lp_tautomer_probability>
1

> <r_epik_Ionization_Penalty>
  0.0045

> <r_epik_Ionization_Penalty_Charging>
  0.0000

> <r_epik_Ionization_Penalty_Neutral>
  0.0045

> <r_epik_State_Penalty>
  0.0032

> <r_epik_Charging_Adjusted_Penalty>
0.00321317

> <i_epik_Tot_Q>
1

> <i_epik_Tot_abs_Q>
1

> <s_lp_Force_Field>
OPLS3e

> <r_lp_Energy>
55.3075

> <b_lp_Chiralities_Consistent>
1

> <s_lp_Variant>
/home/yujie/leadopt/data/result/selection/WDR5/lig_3.sdf:1-1

> <s_i_glide_gridfile>
glide-grid_WDR5

> <i_i_glide_lignum>
1

> <i_i_glide_rotatable_bonds>
8

> <r_i_docking_score>
-10.6603851751403

> <r_i_glide_ligand_efficiency>
-0.280536451977376

> <r_i_glide_ligand_efficiency_sa>
-0.943156651114973

> <r_i_glide_ligand_efficiency_ln>
-2.29869264051997

> <r_i_glide_gscore>
-10.6635983451403

> <r_i_glide_lipo>
-3.68715058021254

> <r_i_glide_hbond>
-0.562654331134117

> <r_i_glide_metal>
-0

> <r_i_glide_rewards>
-2.46968022660564

> <r_i_glide_evdw>
-57.7669105529785

> <r_i_glide_ecoul>
-9.16406917572021

> <r_i_glide_erotb>
0.383247025490535

> <r_i_glide_esite>
-0.0644043286715806

> <r_i_glide_emodel>
-110.766063139079

> <r_i_glide_energy>
-66.9309797286987

> <r_i_glide_einternal>
7.77642869949341

> <i_i_glide_confnum>
43

> <i_i_glide_posenum>
234

> <r_i_glide_eff_state_penalty>
0.00321317

$$$$
