/home/yujie/leadopt/data/result/selection/WDR5/lig_22.sdf:1
                    3D
 Schrodinger Suite 2020-3.
 74 78  0  0  1  0            999 V2000
   12.6775   20.1191   23.9584 O   0  0  0  0  0  0
   12.1837   19.0097   24.1801 C   0  0  0  0  0  0
   12.4068   18.3510   25.3600 N   0  0  0  0  0  0
   13.2863   18.9616   26.3768 C   0  0  0  0  0  0
   14.7503   18.5178   26.3897 C   0  0  0  0  0  0
   15.4274   18.1177   25.2314 C   0  0  0  0  0  0
   16.7737   17.7187   25.2895 C   0  0  0  0  0  0
   17.5219   17.3175   24.2020 O   0  0  0  0  0  0
   16.8773   17.1545   22.9487 C   0  0  0  0  0  0
   17.4349   17.7451   26.5163 C   0  0  0  0  0  0
   16.7777   18.1516   27.6860 C   0  0  0  0  0  0
   17.3705   18.2179   28.9327 O   0  0  0  0  0  0
   18.7599   17.9280   29.0555 C   0  0  0  0  0  0
   15.4363   18.5231   27.6066 C   0  0  0  0  0  0
   12.0291   16.9383   25.5810 C   0  0  0  0  0  0
   10.7453   16.5101   24.8434 C   0  0  0  0  0  0
   10.6605   17.0802   23.4400 C   0  0  0  0  0  0
   11.3127   18.2946   23.1663 C   0  0  0  0  0  0
   11.1954   18.8840   21.9003 C   0  0  0  0  0  0
   10.5136   18.2346   20.8758 C   0  0  0  0  0  0
   10.5292   18.8013   19.4677 C   0  0  0  0  0  0
   11.5877   18.2195   18.6428 N   0  0  0  0  0  0
   12.7053   18.8336   18.1088 C   0  0  0  0  0  0
   13.0676   20.2754   18.2255 C   0  0  0  0  0  0
   12.1133   21.1298   17.4147 C   0  0  0  0  0  0
   14.5390   20.5485   17.8265 C   0  0  0  0  0  0
   13.4336   17.8883   17.4244 N   0  3  0  0  0  0
   12.8043   16.6747   17.5161 C   0  0  0  0  0  0
   11.6730   16.8924   18.2849 C   0  0  0  0  0  0
    9.8837   17.0218   21.1358 C   0  0  0  0  0  0
    9.9602   16.4401   22.3996 C   0  0  0  0  0  0
    9.2831   15.1268   22.5576 C   0  0  0  0  0  0
    9.8451   13.8772   22.3656 C   0  0  0  0  0  0
    8.8354   12.9790   22.5656 N   0  0  0  0  0  0
    8.9014   11.5304   22.4852 C   0  0  0  0  0  0
    7.6824   13.5736   22.8983 N   0  0  0  0  0  0
    7.9448   14.8683   22.9192 C   0  0  0  0  0  0
    6.8464   15.8542   23.2814 C   0  0  0  0  0  0
    6.0728   15.3813   24.2565 F   0  0  0  0  0  0
    7.3452   17.0123   23.7114 F   0  0  0  0  0  0
    6.0733   16.1168   22.2268 F   0  0  0  0  0  0
   13.2624   20.0516   26.3182 H   0  0  0  0  0  0
   12.8609   18.7201   27.3522 H   0  0  0  0  0  0
   14.9032   18.1242   24.2888 H   0  0  0  0  0  0
   17.5995   16.7844   22.2205 H   0  0  0  0  0  0
   16.0723   16.4238   23.0231 H   0  0  0  0  0  0
   16.4783   18.0988   22.5754 H   0  0  0  0  0  0
   18.4713   17.4461   26.5356 H   0  0  0  0  0  0
   19.0691   18.0705   30.0911 H   0  0  0  0  0  0
   18.9748   16.8918   28.7887 H   0  0  0  0  0  0
   19.3678   18.5911   28.4362 H   0  0  0  0  0  0
   14.9313   18.8343   28.5100 H   0  0  0  0  0  0
   12.8116   16.3456   25.1035 H   0  0  0  0  0  0
   12.0922   16.6272   26.6250 H   0  0  0  0  0  0
    9.8781   16.8315   25.4207 H   0  0  0  0  0  0
   10.6916   15.4214   24.8259 H   0  0  0  0  0  0
   11.6745   19.8281   21.6785 H   0  0  0  0  0  0
    9.5728   18.6198   18.9797 H   0  0  0  0  0  0
   10.6353   19.8828   19.5106 H   0  0  0  0  0  0
   12.8805   20.5212   19.2678 H   0  0  0  0  0  0
   11.0990   21.1717   17.8102 H   0  0  0  0  0  0
   12.5132   22.1184   17.4257 H   0  0  0  0  0  0
   12.0738   20.8269   16.3762 H   0  0  0  0  0  0
   15.2318   20.1180   18.5467 H   0  0  0  0  0  0
   14.7883   20.1185   16.8545 H   0  0  0  0  0  0
   14.7596   21.6169   17.8168 H   0  0  0  0  0  0
   13.2304   15.7946   17.0562 H   0  0  0  0  0  0
   10.9193   16.2037   18.6268 H   0  0  0  0  0  0
    9.3471   16.5185   20.3451 H   0  0  0  0  0  0
   10.8410   13.5527   22.0976 H   0  0  0  0  0  0
    9.8706   11.2205   22.0920 H   0  0  0  0  0  0
    8.1145   11.1638   21.8271 H   0  0  0  0  0  0
    8.7777   11.1027   23.4806 H   0  0  0  0  0  0
   14.3061   18.0645   16.9472 H   0  0  0  0  0  0
  1  2  2  0  0  0
  2 18  1  0  0  0
  2  3  1  0  0  0
  3  4  1  0  0  0
  3 15  1  0  0  0
  4  5  1  0  0  0
  4 42  1  0  0  0
  4 43  1  0  0  0
  5 14  1  0  0  0
  5  6  2  0  0  0
  6  7  1  0  0  0
  6 44  1  0  0  0
  7  8  1  0  0  0
  7 10  2  0  0  0
  8  9  1  0  0  0
  9 45  1  0  0  0
  9 46  1  0  0  0
  9 47  1  0  0  0
 10 11  1  0  0  0
 10 48  1  0  0  0
 11 12  1  0  0  0
 11 14  2  0  0  0
 12 13  1  0  0  0
 13 49  1  0  0  0
 13 50  1  0  0  0
 13 51  1  0  0  0
 14 52  1  0  0  0
 15 16  1  0  0  0
 15 53  1  0  0  0
 15 54  1  0  0  0
 16 17  1  0  0  0
 16 55  1  0  0  0
 16 56  1  0  0  0
 17 31  1  0  0  0
 17 18  2  0  0  0
 18 19  1  0  0  0
 19 20  2  0  0  0
 19 57  1  0  0  0
 20 21  1  0  0  0
 20 30  1  0  0  0
 21 22  1  0  0  0
 21 58  1  0  0  0
 21 59  1  0  0  0
 22 29  1  0  0  0
 22 23  1  0  0  0
 23 24  1  0  0  0
 23 27  2  0  0  0
 24 25  1  0  0  0
 24 26  1  0  0  0
 24 60  1  0  0  0
 25 61  1  0  0  0
 25 62  1  0  0  0
 25 63  1  0  0  0
 26 64  1  0  0  0
 26 65  1  0  0  0
 26 66  1  0  0  0
 27 28  1  0  0  0
 27 74  1  0  0  0
 28 29  2  0  0  0
 28 67  1  0  0  0
 29 68  1  0  0  0
 30 31  2  0  0  0
 30 69  1  0  0  0
 31 32  1  0  0  0
 32 37  1  0  0  0
 32 33  2  0  0  0
 33 34  1  0  0  0
 33 70  1  0  0  0
 34 35  1  0  0  0
 34 36  1  0  0  0
 35 71  1  0  0  0
 35 72  1  0  0  0
 35 73  1  0  0  0
 36 37  2  0  0  0
 37 38  1  0  0  0
 38 39  1  0  0  0
 38 40  1  0  0  0
 38 41  1  0  0  0
M  CHG  1  27   1
M  END
> <s_m_source_file>
/home/yujie/leadopt/data/result/selection/WDR5/lig_22.sdf

> <i_m_source_file_index>
1

> <i_lp_mmshare_version>
51139

> <i_f3d_flags>
0

> <s_epik_input>
W0NIM11PYyhbY0hdMSlbY0hdYyhPW0NIM10pW2NIXWMxW0NIMl1OKFtDSDJdW0NIMl0yKUMoPU8pYyhjMjMpW2NIXWMoW0NIMl1uNGMoW0NIXShbQ0gzXSlbQ0gzXSluW2NIXVtjSF00KVtjSF1jMy1jNVtjSF1uKFtDSDNdKW5jNUMoRikoRilG

> <s_epik_cmdline>
J2VwaWtfcHl0aG9uJywgJy1waHQnLCAnMi4wJywgJy1waCcsICc3LjAnLCAnLXRuJywgJzgnLCAnLW1hJywgJzIwMCcsICctaW1hZScsICc8aW5maWxlLm1hZT4nLCAnLW9tYWUnLCAnPG91dGZpbGUubWFlPic=

> <r_lp_tautomer_probability>
1

> <r_epik_Ionization_Penalty>
  0.2013

> <r_epik_Ionization_Penalty_Charging>
  0.0000

> <r_epik_Ionization_Penalty_Neutral>
  0.2013

> <r_epik_State_Penalty>
  0.1912

> <r_epik_Charging_Adjusted_Penalty>
0.191151

> <i_epik_Tot_Q>
1

> <i_epik_Tot_abs_Q>
1

> <s_lp_Force_Field>
OPLS3e

> <r_lp_Energy>
58.9386

> <b_lp_Chiralities_Consistent>
1

> <s_lp_Variant>
/home/yujie/leadopt/data/result/selection/WDR5/lig_22.sdf:1-1

> <s_i_glide_gridfile>
glide-grid_WDR5

> <i_i_glide_lignum>
1

> <i_i_glide_rotatable_bonds>
9

> <r_i_docking_score>
-11.6001111116231

> <r_i_glide_ligand_efficiency>
-0.282929539307881

> <r_i_glide_ligand_efficiency_sa>
-0.975602514047323

> <r_i_glide_ligand_efficiency_ln>
-2.46100217573078

> <r_i_glide_gscore>
-11.7912621116231

> <r_i_glide_lipo>
-4.61766281353591

> <r_i_glide_hbond>
-0.32

> <r_i_glide_metal>
-0

> <r_i_glide_rewards>
-2.4870039661293

> <r_i_glide_evdw>
-56.7825889587402

> <r_i_glide_ecoul>
-11.6130104064941

> <r_i_glide_erotb>
0.233788061606773

> <r_i_glide_esite>
-0.0193023846535661

> <r_i_glide_emodel>
-114.396001299824

> <r_i_glide_energy>
-68.3955993652344

> <r_i_glide_einternal>
3.50748348236084

> <i_i_glide_confnum>
111

> <i_i_glide_posenum>
153

> <r_i_glide_eff_state_penalty>
0.191151

$$$$
