/home/yujie/leadopt/data/result/selection/WDR5/lig_5.sdf:1
                    3D
 Schrodinger Suite 2020-3.
 70 74  0  0  1  0            999 V2000
   12.4730   20.4557   23.8265 O   0  0  0  0  0  0
   12.0787   19.3041   24.0219 C   0  0  0  0  0  0
   12.3006   18.6744   25.2156 N   0  0  0  0  0  0
   13.1602   19.3131   26.2296 C   0  0  0  0  0  0
   14.6061   18.8148   26.3129 C   0  0  0  0  0  0
   15.2816   18.2667   25.2132 C   0  0  0  0  0  0
   16.6133   17.8359   25.3341 C   0  0  0  0  0  0
   17.3749   17.3180   24.3073 O   0  0  0  0  0  0
   16.8048   17.1934   23.0142 C   0  0  0  0  0  0
   17.2530   17.9505   26.5668 C   0  0  0  0  0  0
   16.5977   18.4948   27.6783 C   0  0  0  0  0  0
   17.1743   18.6570   28.9224 O   0  0  0  0  0  0
   18.5448   18.3071   29.0983 C   0  0  0  0  0  0
   15.2758   18.9150   27.5357 C   0  0  0  0  0  0
   11.9225   17.2686   25.4802 C   0  0  0  0  0  0
   10.6591   16.8292   24.7240 C   0  0  0  0  0  0
   10.6741   17.2948   23.2761 C   0  0  0  0  0  0
   11.3085   18.5147   22.9810 C   0  0  0  0  0  0
   11.2285   19.0489   21.6859 C   0  0  0  0  0  0
   10.6018   18.3391   20.6616 C   0  0  0  0  0  0
   10.5717   18.8813   19.2370 C   0  0  0  0  0  0
   11.7370   18.4846   18.4488 N   0  3  0  0  0  0
   12.6637   19.3149   17.8309 C   0  0  0  0  0  0
   13.6158   18.5207   17.2101 N   0  0  0  0  0  0
   14.7754   18.9845   16.4655 C   0  0  0  0  0  0
   13.2725   17.1926   17.4265 C   0  0  0  0  0  0
   12.1087   17.1753   18.1774 C   0  0  0  0  0  0
   12.6360   20.6691   17.8257 N   0  0  0  0  0  0
   10.0395   17.0983   20.9399 C   0  0  0  0  0  0
   10.0727   16.5634   22.2306 C   0  0  0  0  0  0
    9.4611   15.2273   22.4506 C   0  0  0  0  0  0
    8.0701   15.0507   22.4441 C   0  0  0  0  0  0
    7.2632   16.1538   22.2214 O   0  0  0  0  0  0
    5.8465   15.9983   22.1915 C   0  0  0  0  0  0
    7.4887   13.8285   22.6241 N   0  0  0  0  0  0
    8.2913   12.7500   22.8070 C   0  0  0  0  0  0
    9.6795   12.8448   22.8271 C   0  0  0  0  0  0
   10.2655   14.0970   22.6435 C   0  0  0  0  0  0
   13.1786   20.4006   26.1232 H   0  0  0  0  0  0
   12.6947   19.1365   27.1998 H   0  0  0  0  0  0
   14.7734   18.1960   24.2654 H   0  0  0  0  0  0
   17.5488   16.7951   22.3242 H   0  0  0  0  0  0
   15.9573   16.5078   23.0265 H   0  0  0  0  0  0
   16.4784   18.1604   22.6263 H   0  0  0  0  0  0
   18.2785   17.6207   26.6332 H   0  0  0  0  0  0
   18.8438   18.5251   30.1235 H   0  0  0  0  0  0
   18.7117   17.2433   28.9251 H   0  0  0  0  0  0
   19.1928   18.8841   28.4363 H   0  0  0  0  0  0
   14.7733   19.3385   28.3914 H   0  0  0  0  0  0
   12.7198   16.6480   25.0686 H   0  0  0  0  0  0
   11.9244   17.0244   26.5438 H   0  0  0  0  0  0
    9.7796   17.2343   25.2255 H   0  0  0  0  0  0
   10.5637   15.7475   24.8043 H   0  0  0  0  0  0
   11.6733   20.0065   21.4523 H   0  0  0  0  0  0
    9.6815   18.5239   18.7210 H   0  0  0  0  0  0
   10.4733   19.9674   19.2435 H   0  0  0  0  0  0
   15.2715   19.7832   17.0224 H   0  0  0  0  0  0
   15.4785   18.1661   16.3091 H   0  0  0  0  0  0
   14.4531   19.3527   15.4906 H   0  0  0  0  0  0
   13.8717   16.3867   17.0307 H   0  0  0  0  0  0
   11.5224   16.3470   18.5533 H   0  0  0  0  0  0
   12.9468   21.1842   17.0100 H   0  0  0  0  0  0
    9.5689   16.5361   20.1460 H   0  0  0  0  0  0
    5.3817   16.9516   21.9483 H   0  0  0  0  0  0
    5.4735   15.6734   23.1632 H   0  0  0  0  0  0
    5.5284   15.2918   21.4268 H   0  0  0  0  0  0
    7.8046   11.7948   22.9442 H   0  0  0  0  0  0
   10.2924   11.9623   22.9718 H   0  0  0  0  0  0
   11.3436   14.1772   22.6411 H   0  0  0  0  0  0
   12.2686   21.1787   18.6216 H   0  0  0  0  0  0
  1  2  2  0  0  0
  2 18  1  0  0  0
  2  3  1  0  0  0
  3  4  1  0  0  0
  3 15  1  0  0  0
  4  5  1  0  0  0
  4 39  1  0  0  0
  4 40  1  0  0  0
  5 14  1  0  0  0
  5  6  2  0  0  0
  6  7  1  0  0  0
  6 41  1  0  0  0
  7  8  1  0  0  0
  7 10  2  0  0  0
  8  9  1  0  0  0
  9 42  1  0  0  0
  9 43  1  0  0  0
  9 44  1  0  0  0
 10 11  1  0  0  0
 10 45  1  0  0  0
 11 12  1  0  0  0
 11 14  2  0  0  0
 12 13  1  0  0  0
 13 46  1  0  0  0
 13 47  1  0  0  0
 13 48  1  0  0  0
 14 49  1  0  0  0
 15 16  1  0  0  0
 15 50  1  0  0  0
 15 51  1  0  0  0
 16 17  1  0  0  0
 16 52  1  0  0  0
 16 53  1  0  0  0
 17 30  1  0  0  0
 17 18  2  0  0  0
 18 19  1  0  0  0
 19 20  2  0  0  0
 19 54  1  0  0  0
 20 21  1  0  0  0
 20 29  1  0  0  0
 21 22  1  0  0  0
 21 55  1  0  0  0
 21 56  1  0  0  0
 22 27  1  0  0  0
 22 23  2  0  0  0
 23 24  1  0  0  0
 23 28  1  0  0  0
 24 25  1  0  0  0
 24 26  1  0  0  0
 25 57  1  0  0  0
 25 58  1  0  0  0
 25 59  1  0  0  0
 26 27  2  0  0  0
 26 60  1  0  0  0
 27 61  1  0  0  0
 28 62  1  0  0  0
 28 70  1  0  0  0
 29 30  2  0  0  0
 29 63  1  0  0  0
 30 31  1  0  0  0
 31 38  1  0  0  0
 31 32  2  0  0  0
 32 33  1  0  0  0
 32 35  1  0  0  0
 33 34  1  0  0  0
 34 64  1  0  0  0
 34 65  1  0  0  0
 34 66  1  0  0  0
 35 36  2  0  0  0
 36 37  1  0  0  0
 36 67  1  0  0  0
 37 38  2  0  0  0
 37 68  1  0  0  0
 38 69  1  0  0  0
M  CHG  1  22   1
M  END
> <s_m_source_file>
/home/yujie/leadopt/data/result/selection/WDR5/lig_5.sdf

> <i_m_source_file_index>
1

> <i_lp_mmshare_version>
51139

> <i_f3d_flags>
0

> <s_epik_input>
W0NIM11PYyhbY0hdMSlbY0hdYyhPW0NIM10pW2NIXWMxW0NIMl1OKFtDSDJdW0NIMl0yKUMoPU8pYyhjMjMpW2NIXWMoW0NIMl1uNC9jKD1OL1tIXSluKFtDSDNdKVtjSF1bY0hdNClbY0hdYzMtYzVjKE9bQ0gzXSluW2NIXVtjSF1bY0hdNQ==

> <s_epik_cmdline>
J2VwaWtfcHl0aG9uJywgJy1waHQnLCAnMi4wJywgJy1waCcsICc3LjAnLCAnLXRuJywgJzgnLCAnLW1hJywgJzIwMCcsICctaW1hZScsICc8aW5maWxlLm1hZT4nLCAnLW9tYWUnLCAnPG91dGZpbGUubWFlPic=

> <r_lp_tautomer_probability>
1

> <r_epik_Ionization_Penalty>
  0.0001

> <r_epik_Ionization_Penalty_Charging>
  0.0000

> <r_epik_Ionization_Penalty_Neutral>
  0.0001

> <r_epik_State_Penalty>
 -0.0000

> <r_epik_Charging_Adjusted_Penalty>
0

> <i_epik_Tot_Q>
1

> <i_epik_Tot_abs_Q>
1

> <s_lp_Force_Field>
OPLS3e

> <r_lp_Energy>
64.7444

> <b_lp_Chiralities_Consistent>
1

> <s_lp_Variant>
/home/yujie/leadopt/data/result/selection/WDR5/lig_5.sdf:1-1

> <s_i_glide_gridfile>
glide-grid_WDR5

> <i_i_glide_lignum>
1

> <i_i_glide_rotatable_bonds>
8

> <r_i_docking_score>
-11.5201472690212

> <r_i_glide_ligand_efficiency>
-0.3031617702374

> <r_i_glide_ligand_efficiency_sa>
-1.01922241458394

> <r_i_glide_ligand_efficiency_ln>
-2.48408263959907

> <r_i_glide_gscore>
-11.5201472690212

> <r_i_glide_lipo>
-4.22588524200446

> <r_i_glide_hbond>
-0.550097980560118

> <r_i_glide_metal>
-0

> <r_i_glide_rewards>
-2.47096705373623

> <r_i_glide_evdw>
-60.5393447875977

> <r_i_glide_ecoul>
-10.8903961181641

> <r_i_glide_erotb>
0.387329664384093

> <r_i_glide_esite>
0

> <r_i_glide_emodel>
-122.383019372257

> <r_i_glide_energy>
-71.4297409057617

> <r_i_glide_einternal>
4.88283252716064

> <i_i_glide_confnum>
116

> <i_i_glide_posenum>
129

> <r_i_glide_eff_state_penalty>
-0

$$$$
