/home/yujie/leadopt/data/result/selection/WDR5/lig_10.sdf:1
                    3D
 Schrodinger Suite 2020-3.
 66 70  0  0  1  0            999 V2000
   12.8727   20.1186   23.5658 O   0  0  0  0  0  0
   12.1210   19.1827   23.8512 C   0  0  0  0  0  0
   12.0873   18.6742   25.1185 N   0  0  0  0  0  0
   12.9130   19.2954   26.1762 C   0  0  0  0  0  0
   14.3484   18.7835   26.3268 C   0  0  0  0  0  0
   15.1194   18.3715   25.2311 C   0  0  0  0  0  0
   16.4467   17.9450   25.4004 C   0  0  0  0  0  0
   17.2768   17.5354   24.3758 O   0  0  0  0  0  0
   16.7766   17.5119   23.0446 C   0  0  0  0  0  0
   16.9893   17.9280   26.6838 C   0  0  0  0  0  0
   16.2358   18.3303   27.7967 C   0  0  0  0  0  0
   16.7105   18.3505   29.0933 O   0  0  0  0  0  0
   18.0624   17.9728   29.3438 C   0  0  0  0  0  0
   14.9197   18.7500   27.6020 C   0  0  0  0  0  0
   11.1613   17.6050   25.5454 C   0  0  0  0  0  0
   10.7119   16.6460   24.4231 C   0  0  0  0  0  0
   10.5457   17.3189   23.0707 C   0  0  0  0  0  0
   11.2295   18.5186   22.8259 C   0  0  0  0  0  0
   11.1794   19.1044   21.5528 C   0  0  0  0  0  0
   10.4698   18.5070   20.5175 C   0  0  0  0  0  0
   10.5416   19.0780   19.1097 C   0  0  0  0  0  0
   11.7337   18.6405   18.3901 N   0  3  0  0  0  0
   12.7148   19.4402   17.8264 C   0  0  0  0  0  0
   13.6516   18.6190   17.2204 N   0  0  0  0  0  0
   14.8446   19.0495   16.5132 C   0  0  0  0  0  0
   13.2655   17.3032   17.4258 C   0  0  0  0  0  0
   12.0694   17.3195   18.1259 C   0  0  0  0  0  0
   12.7299   20.7940   17.8266 N   0  0  0  0  0  0
    9.7295   17.3570   20.7754 C   0  0  0  0  0  0
    9.7665   16.7611   22.0382 C   0  0  0  0  0  0
    8.9913   15.5105   22.2357 C   0  0  0  0  0  0
    9.4608   14.2125   22.2425 C   0  0  0  0  0  0
    8.4338   13.3605   22.4712 O   0  0  0  0  0  0
    7.2737   14.1178   22.6267 N   0  0  0  0  0  0
    7.6188   15.3754   22.4673 C   0  0  0  0  0  0
    6.5557   16.4468   22.5403 C   0  0  0  0  0  0
   12.9646   20.3770   26.0304 H   0  0  0  0  0  0
   12.3976   19.1689   27.1301 H   0  0  0  0  0  0
   14.6919   18.3964   24.2429 H   0  0  0  0  0  0
   17.5522   17.1498   22.3695 H   0  0  0  0  0  0
   15.9287   16.8313   22.9690 H   0  0  0  0  0  0
   16.4781   18.5076   22.7063 H   0  0  0  0  0  0
   18.0118   17.6014   26.7941 H   0  0  0  0  0  0
   18.2710   18.0590   30.4107 H   0  0  0  0  0  0
   18.2509   16.9373   29.0547 H   0  0  0  0  0  0
   18.7643   18.6255   28.8198 H   0  0  0  0  0  0
   14.3453   19.0678   28.4607 H   0  0  0  0  0  0
   11.4440   17.1197   26.4808 H   0  0  0  0  0  0
   10.2436   18.1297   25.8172 H   0  0  0  0  0  0
    9.7948   16.1403   24.7293 H   0  0  0  0  0  0
   11.4515   15.8483   24.3327 H   0  0  0  0  0  0
   11.6996   20.0276   21.3477 H   0  0  0  0  0  0
    9.6729   18.7913   18.5233 H   0  0  0  0  0  0
   10.5143   20.1673   19.1460 H   0  0  0  0  0  0
   14.5743   19.3235   15.4931 H   0  0  0  0  0  0
   15.2731   19.9110   17.0266 H   0  0  0  0  0  0
   15.5732   18.2404   16.4783 H   0  0  0  0  0  0
   13.8555   16.4780   17.0490 H   0  0  0  0  0  0
   11.4296   16.5153   18.4620 H   0  0  0  0  0  0
   12.9948   21.3046   16.9970 H   0  0  0  0  0  0
    9.1495   16.9176   19.9789 H   0  0  0  0  0  0
   10.4361   13.7636   22.1097 H   0  0  0  0  0  0
    6.9599   17.4329   22.3146 H   0  0  0  0  0  0
    5.7490   16.2640   21.8303 H   0  0  0  0  0  0
    6.1074   16.4989   23.5330 H   0  0  0  0  0  0
   12.4021   21.3081   18.6364 H   0  0  0  0  0  0
  1  2  2  0  0  0
  2 18  1  0  0  0
  2  3  1  0  0  0
  3  4  1  0  0  0
  3 15  1  0  0  0
  4  5  1  0  0  0
  4 37  1  0  0  0
  4 38  1  0  0  0
  5 14  1  0  0  0
  5  6  2  0  0  0
  6  7  1  0  0  0
  6 39  1  0  0  0
  7  8  1  0  0  0
  7 10  2  0  0  0
  8  9  1  0  0  0
  9 40  1  0  0  0
  9 41  1  0  0  0
  9 42  1  0  0  0
 10 11  1  0  0  0
 10 43  1  0  0  0
 11 12  1  0  0  0
 11 14  2  0  0  0
 12 13  1  0  0  0
 13 44  1  0  0  0
 13 45  1  0  0  0
 13 46  1  0  0  0
 14 47  1  0  0  0
 15 16  1  0  0  0
 15 48  1  0  0  0
 15 49  1  0  0  0
 16 17  1  0  0  0
 16 50  1  0  0  0
 16 51  1  0  0  0
 17 30  1  0  0  0
 17 18  2  0  0  0
 18 19  1  0  0  0
 19 20  2  0  0  0
 19 52  1  0  0  0
 20 21  1  0  0  0
 20 29  1  0  0  0
 21 22  1  0  0  0
 21 53  1  0  0  0
 21 54  1  0  0  0
 22 27  1  0  0  0
 22 23  2  0  0  0
 23 24  1  0  0  0
 23 28  1  0  0  0
 24 25  1  0  0  0
 24 26  1  0  0  0
 25 55  1  0  0  0
 25 56  1  0  0  0
 25 57  1  0  0  0
 26 27  2  0  0  0
 26 58  1  0  0  0
 27 59  1  0  0  0
 28 60  1  0  0  0
 28 66  1  0  0  0
 29 30  2  0  0  0
 29 61  1  0  0  0
 30 31  1  0  0  0
 31 35  1  0  0  0
 31 32  2  0  0  0
 32 33  1  0  0  0
 32 62  1  0  0  0
 33 34  1  0  0  0
 34 35  2  0  0  0
 35 36  1  0  0  0
 36 63  1  0  0  0
 36 64  1  0  0  0
 36 65  1  0  0  0
M  CHG  1  22   1
M  END
> <s_m_source_file>
/home/yujie/leadopt/data/result/selection/WDR5/lig_10.sdf

> <i_m_source_file_index>
1

> <i_lp_mmshare_version>
51139

> <i_f3d_flags>
0

> <s_epik_input>
W0NIM11PYyhbY0hdMSlbY0hdYyhPW0NIM10pW2NIXWMxW0NIMl1OKFtDSDJdW0NIMl0yKUMoPU8pYyhjMjMpW2NIXWMoW0NIMl1uNC9jKD1OL1tIXSluKFtDSDNdKVtjSF1bY0hdNClbY0hdYzMtYzVbY0hdb25jNVtDSDNd

> <s_epik_cmdline>
J2VwaWtfcHl0aG9uJywgJy1waHQnLCAnMi4wJywgJy1waCcsICc3LjAnLCAnLXRuJywgJzgnLCAnLW1hJywgJzIwMCcsICctaW1hZScsICc8aW5maWxlLm1hZT4nLCAnLW9tYWUnLCAnPG91dGZpbGUubWFlPic=

> <r_lp_tautomer_probability>
1

> <r_epik_Ionization_Penalty>
  0.0001

> <r_epik_Ionization_Penalty_Charging>
  0.0000

> <r_epik_Ionization_Penalty_Neutral>
  0.0001

> <r_epik_State_Penalty>
 -0.0000

> <r_epik_Charging_Adjusted_Penalty>
0

> <i_epik_Tot_Q>
1

> <i_epik_Tot_abs_Q>
1

> <s_lp_Force_Field>
OPLS3e

> <r_lp_Energy>
46.719

> <b_lp_Chiralities_Consistent>
1

> <s_lp_Variant>
/home/yujie/leadopt/data/result/selection/WDR5/lig_10.sdf:1-1

> <s_i_glide_gridfile>
glide-grid_WDR5

> <i_i_glide_lignum>
1

> <i_i_glide_rotatable_bonds>
7

> <r_i_docking_score>
-11.043082763706

> <r_i_glide_ligand_efficiency>
-0.306752298991832

> <r_i_glide_ligand_efficiency_sa>
-1.01287377349232

> <r_i_glide_ligand_efficiency_ln>
-2.40930230942291

> <r_i_glide_gscore>
-11.043082763706

> <r_i_glide_lipo>
-4.07462377635601

> <r_i_glide_hbond>
-0.57373174757155

> <r_i_glide_metal>
-0

> <r_i_glide_rewards>
-2.60235228296185

> <r_i_glide_evdw>
-58.0903778076172

> <r_i_glide_ecoul>
-8.75917625427246

> <r_i_glide_erotb>
0.426020371705174

> <r_i_glide_esite>
0

> <r_i_glide_emodel>
-112.040089480054

> <r_i_glide_energy>
-66.8495540618896

> <r_i_glide_einternal>
4.75141048431396

> <i_i_glide_confnum>
43

> <i_i_glide_posenum>
383

> <r_i_glide_eff_state_penalty>
-0

$$$$
