/home/yujie/leadopt/data/result/selection/WDR5/lig_27.sdf:1
                    3D
 Schrodinger Suite 2020-3.
 61 65  0  0  1  0            999 V2000
   12.4718   20.4263   23.8261 O   0  0  0  0  0  0
   11.9968   19.2996   23.9966 C   0  0  0  0  0  0
   12.0832   18.6736   25.2129 N   0  0  0  0  0  0
   12.8852   19.2888   26.2881 C   0  0  0  0  0  0
   14.3633   18.8974   26.3591 C   0  0  0  0  0  0
   15.0731   19.0952   27.5473 C   0  0  0  0  0  0
   16.4121   18.6987   27.6077 C   0  0  0  0  0  0
   17.2245   18.9301   28.8664 C   0  0  0  0  0  0
   17.0019   18.1147   26.4831 C   0  0  0  0  0  0
   16.2274   17.9411   25.3354 C   0  0  0  0  0  0
   14.9264   18.3178   25.2626 N   0  0  0  0  0  0
   11.7021   17.2606   25.4205 C   0  0  0  0  0  0
   10.4993   16.8207   24.5704 C   0  0  0  0  0  0
   10.5918   17.3288   23.1426 C   0  0  0  0  0  0
   11.2599   18.5431   22.9065 C   0  0  0  0  0  0
   11.2529   19.1032   21.6203 C   0  0  0  0  0  0
   10.6994   18.4146   20.5413 C   0  0  0  0  0  0
   10.7762   19.0067   19.1354 C   0  0  0  0  0  0
   11.9218   18.5458   18.3511 N   0  0  0  0  0  0
   12.8723   19.2942   17.6789 C   0  0  0  0  0  0
   12.8919   20.8060   17.6420 C   0  0  0  0  0  0
   13.7451   18.5510   17.0326 N   0  0  0  0  0  0
   13.3726   17.3061   17.2606 C   0  0  0  0  0  0
   12.2440   17.2437   18.0574 C   0  0  0  0  0  0
   10.0960   17.1758   20.7624 C   0  0  0  0  0  0
   10.0360   16.6365   22.0515 C   0  0  0  0  0  0
    9.3674   15.3166   22.2266 C   0  0  0  0  0  0
    9.9685   14.0688   22.2267 C   0  0  0  0  0  0
    8.9618   13.1667   22.4172 N   0  0  0  0  0  0
    9.0661   11.7191   22.5018 C   0  0  0  0  0  0
    7.7726   13.7562   22.5681 N   0  0  0  0  0  0
    7.9973   15.0540   22.4516 C   0  0  0  0  0  0
    6.8474   16.0433   22.5885 C   0  0  0  0  0  0
    6.7299   16.4588   23.8502 F   0  0  0  0  0  0
    7.0394   17.1196   21.8290 F   0  0  0  0  0  0
    5.6763   15.5135   22.2269 F   0  0  0  0  0  0
   12.8177   20.3773   26.2600 H   0  0  0  0  0  0
   12.4296   19.0064   27.2381 H   0  0  0  0  0  0
   14.5959   19.5509   28.4028 H   0  0  0  0  0  0
   18.2766   19.0910   28.6258 H   0  0  0  0  0  0
   16.8850   19.8257   29.3892 H   0  0  0  0  0  0
   17.1428   18.0769   29.5415 H   0  0  0  0  0  0
   18.0379   17.8092   26.4956 H   0  0  0  0  0  0
   16.6488   17.4946   24.4470 H   0  0  0  0  0  0
   12.5300   16.6610   25.0365 H   0  0  0  0  0  0
   11.6548   16.9839   26.4739 H   0  0  0  0  0  0
    9.5816   17.1900   25.0291 H   0  0  0  0  0  0
   10.4259   15.7337   24.6033 H   0  0  0  0  0  0
   11.6776   20.0776   21.4362 H   0  0  0  0  0  0
   10.8081   20.0958   19.2026 H   0  0  0  0  0  0
    9.8703   18.7745   18.5767 H   0  0  0  0  0  0
   13.6731   21.1936   16.9828 H   0  0  0  0  0  0
   13.0761   21.2225   18.6263 H   0  0  0  0  0  0
   11.9470   21.2198   17.2837 H   0  0  0  0  0  0
   13.9045   16.4606   16.8493 H   0  0  0  0  0  0
   11.6623   16.4163   18.4332 H   0  0  0  0  0  0
    9.6733   16.6318   19.9301 H   0  0  0  0  0  0
   10.9923   13.7387   22.1020 H   0  0  0  0  0  0
   10.0725   11.3988   22.2286 H   0  0  0  0  0  0
    8.8615   11.3971   23.5242 H   0  0  0  0  0  0
    8.3474   11.2591   21.8242 H   0  0  0  0  0  0
  1  2  2  0  0  0
  2 15  1  0  0  0
  2  3  1  0  0  0
  3  4  1  0  0  0
  3 12  1  0  0  0
  4  5  1  0  0  0
  4 37  1  0  0  0
  4 38  1  0  0  0
  5 11  1  0  0  0
  5  6  2  0  0  0
  6  7  1  0  0  0
  6 39  1  0  0  0
  7  8  1  0  0  0
  7  9  2  0  0  0
  8 40  1  0  0  0
  8 41  1  0  0  0
  8 42  1  0  0  0
  9 10  1  0  0  0
  9 43  1  0  0  0
 10 11  2  0  0  0
 10 44  1  0  0  0
 12 13  1  0  0  0
 12 45  1  0  0  0
 12 46  1  0  0  0
 13 14  1  0  0  0
 13 47  1  0  0  0
 13 48  1  0  0  0
 14 26  1  0  0  0
 14 15  2  0  0  0
 15 16  1  0  0  0
 16 17  2  0  0  0
 16 49  1  0  0  0
 17 18  1  0  0  0
 17 25  1  0  0  0
 18 19  1  0  0  0
 18 50  1  0  0  0
 18 51  1  0  0  0
 19 24  1  0  0  0
 19 20  1  0  0  0
 20 21  1  0  0  0
 20 22  2  0  0  0
 21 52  1  0  0  0
 21 53  1  0  0  0
 21 54  1  0  0  0
 22 23  1  0  0  0
 23 24  2  0  0  0
 23 55  1  0  0  0
 24 56  1  0  0  0
 25 26  2  0  0  0
 25 57  1  0  0  0
 26 27  1  0  0  0
 27 32  1  0  0  0
 27 28  2  0  0  0
 28 29  1  0  0  0
 28 58  1  0  0  0
 29 30  1  0  0  0
 29 31  1  0  0  0
 30 59  1  0  0  0
 30 60  1  0  0  0
 30 61  1  0  0  0
 31 32  2  0  0  0
 32 33  1  0  0  0
 33 34  1  0  0  0
 33 35  1  0  0  0
 33 36  1  0  0  0
M  END
> <s_m_source_file>
/home/yujie/leadopt/data/result/selection/WDR5/lig_27.sdf

> <i_m_source_file_index>
1

> <i_lp_mmshare_version>
51139

> <i_f3d_flags>
0

> <s_epik_input>
bjFbY0hdW2NIXWMoW0NIM10pW2NIXWMxW0NIMl1OKFtDSDJdW0NIMl0yKUMoPU8pYyhjMjMpW2NIXWMoW0NIMl1uNGMoW0NIM10pbltjSF1bY0hdNClbY0hdYzMtYzVbY0hdbihbQ0gzXSluYzVDKEYpKEYpRg==

> <s_epik_cmdline>
J2VwaWtfcHl0aG9uJywgJy1waHQnLCAnMi4wJywgJy1waCcsICc3LjAnLCAnLXRuJywgJzgnLCAnLW1hJywgJzIwMCcsICctaW1hZScsICc8aW5maWxlLm1hZT4nLCAnLW9tYWUnLCAnPG91dGZpbGUubWFlPic=

> <r_lp_tautomer_probability>
1

> <r_epik_Ionization_Penalty>
  0.8320

> <r_epik_Ionization_Penalty_Charging>
  0.8315

> <r_epik_Ionization_Penalty_Neutral>
  0.0005

> <r_epik_State_Penalty>
  0.8654

> <r_epik_Charging_Adjusted_Penalty>
1.69691

> <i_epik_Tot_Q>
0

> <i_epik_Tot_abs_Q>
0

> <s_lp_Force_Field>
OPLS3e

> <r_lp_Energy>
46.2858

> <b_lp_Chiralities_Consistent>
1

> <s_lp_Variant>
/home/yujie/leadopt/data/result/selection/WDR5/lig_27.sdf:1-2

> <s_i_glide_gridfile>
glide-grid_WDR5

> <i_i_glide_lignum>
2

> <i_i_glide_rotatable_bonds>
6

> <r_i_docking_score>
-9.50700005240124

> <r_i_glide_ligand_efficiency>
-0.264083334788923

> <r_i_glide_ligand_efficiency_sa>
-0.871983958076918

> <r_i_glide_ligand_efficiency_ln>
-2.07417056197515

> <r_i_glide_gscore>
-10.3724170524012

> <r_i_glide_lipo>
-3.75255541478431

> <r_i_glide_hbond>
-0.32

> <r_i_glide_metal>
-0

> <r_i_glide_rewards>
-2.59766229411122

> <r_i_glide_evdw>
-56.683349609375

> <r_i_glide_ecoul>
-8.44863796234131

> <r_i_glide_erotb>
0.416676894478013

> <r_i_glide_esite>
-0.0174130631637724

> <r_i_glide_emodel>
-102.647359756706

> <r_i_glide_energy>
-65.1319875717163

> <r_i_glide_einternal>
4.77276420593262

> <i_i_glide_confnum>
63

> <i_i_glide_posenum>
151

> <r_i_glide_eff_state_penalty>
0.865417

$$$$
