/home/yujie/leadopt/data/result/selection/WDR5/lig_4.sdf:1
                    3D
 Schrodinger Suite 2020-3.
 70 74  0  0  1  0            999 V2000
   12.8492   20.1183   23.6423 O   0  0  0  0  0  0
   12.1478   19.1679   23.9951 C   0  0  0  0  0  0
   12.1748   18.7170   25.2847 N   0  0  0  0  0  0
   13.0271   19.3999   26.2785 C   0  0  0  0  0  0
   14.4733   18.9039   26.3953 C   0  0  0  0  0  0
   15.1562   18.2982   25.3303 C   0  0  0  0  0  0
   16.4932   17.8929   25.4681 C   0  0  0  0  0  0
   17.2506   17.3175   24.4660 O   0  0  0  0  0  0
   16.6888   17.1658   23.1677 C   0  0  0  0  0  0
   17.1330   18.0886   26.6911 C   0  0  0  0  0  0
   16.4691   18.6847   27.7725 C   0  0  0  0  0  0
   17.0447   18.9303   29.0038 O   0  0  0  0  0  0
   18.4248   18.6337   29.1917 C   0  0  0  0  0  0
   15.1403   19.0764   27.6108 C   0  0  0  0  0  0
   11.3120   17.6296   25.7856 C   0  0  0  0  0  0
   10.9469   16.5710   24.7264 C   0  0  0  0  0  0
   10.7329   17.1392   23.3314 C   0  0  0  0  0  0
   11.2742   18.3992   23.0269 C   0  0  0  0  0  0
   11.1664   18.9153   21.7286 C   0  0  0  0  0  0
   10.5495   18.1824   20.7198 C   0  0  0  0  0  0
   10.5488   18.7078   19.2889 C   0  0  0  0  0  0
   11.7213   18.3215   18.5052 N   0  3  0  0  0  0
   12.6034   19.1693   17.8512 C   0  0  0  0  0  0
   13.5489   18.3989   17.1936 N   0  0  0  0  0  0
   14.6684   18.8957   16.4076 C   0  0  0  0  0  0
   13.2463   17.0654   17.4266 C   0  0  0  0  0  0
   12.1140   17.0196   18.2268 C   0  0  0  0  0  0
   12.5331   20.5215   17.8267 N   0  0  0  0  0  0
    9.9923   16.9427   21.0251 C   0  0  0  0  0  0
   10.0741   16.4098   22.3169 C   0  0  0  0  0  0
    9.5741   15.0279   22.5620 C   0  0  0  0  0  0
    8.2024   14.7092   22.6260 C   0  0  0  0  0  0
    7.0845   15.7360   22.4915 C   0  0  0  0  0  0
    7.8338   13.4325   22.8756 N   0  3  0  0  0  0
    8.7068   12.4238   23.0744 C   0  0  0  0  0  0
   10.0729   12.6908   23.0266 C   0  0  0  0  0  0
   10.5030   13.9920   22.7568 C   0  0  0  0  0  0
   13.0596   20.4736   26.0796 H   0  0  0  0  0  0
   12.5537   19.3106   27.2571 H   0  0  0  0  0  0
   14.6550   18.1638   24.3862 H   0  0  0  0  0  0
   17.4251   16.7073   22.5084 H   0  0  0  0  0  0
   15.8137   16.5166   23.1861 H   0  0  0  0  0  0
   16.4143   18.1286   22.7338 H   0  0  0  0  0  0
   18.1629   17.7777   26.7744 H   0  0  0  0  0  0
   18.7189   18.9139   30.2030 H   0  0  0  0  0  0
   18.6276   17.5681   29.0740 H   0  0  0  0  0  0
   19.0525   19.1968   28.4990 H   0  0  0  0  0  0
   14.6339   19.5439   28.4418 H   0  0  0  0  0  0
   11.6270   17.2226   26.7478 H   0  0  0  0  0  0
   10.3610   18.1092   26.0241 H   0  0  0  0  0  0
   10.0709   16.0149   25.0620 H   0  0  0  0  0  0
   11.7545   15.8379   24.6920 H   0  0  0  0  0  0
   11.6120   19.8680   21.4747 H   0  0  0  0  0  0
    9.6729   18.3620   18.7493 H   0  0  0  0  0  0
   10.4730   19.7953   19.3034 H   0  0  0  0  0  0
   15.1261   19.7440   16.9162 H   0  0  0  0  0  0
   15.4201   18.1184   16.2791 H   0  0  0  0  0  0
   14.3075   19.2038   15.4260 H   0  0  0  0  0  0
   13.8523   16.2712   17.0101 H   0  0  0  0  0  0
   11.5610   16.1782   18.6230 H   0  0  0  0  0  0
   12.7087   21.0265   16.9695 H   0  0  0  0  0  0
    9.5436   16.3650   20.2326 H   0  0  0  0  0  0
    7.3898   16.5997   21.8988 H   0  0  0  0  0  0
    6.1986   15.3138   22.0110 H   0  0  0  0  0  0
    6.7911   16.1000   23.4782 H   0  0  0  0  0  0
    8.2937   11.4437   23.2725 H   0  0  0  0  0  0
   10.7932   11.8939   23.1760 H   0  0  0  0  0  0
   11.5639   14.1908   22.7009 H   0  0  0  0  0  0
   12.2429   21.0360   18.6490 H   0  0  0  0  0  0
    6.8471   13.2252   22.9270 H   0  0  0  0  0  0
  1  2  2  0  0  0
  2 18  1  0  0  0
  2  3  1  0  0  0
  3  4  1  0  0  0
  3 15  1  0  0  0
  4  5  1  0  0  0
  4 38  1  0  0  0
  4 39  1  0  0  0
  5 14  1  0  0  0
  5  6  2  0  0  0
  6  7  1  0  0  0
  6 40  1  0  0  0
  7  8  1  0  0  0
  7 10  2  0  0  0
  8  9  1  0  0  0
  9 41  1  0  0  0
  9 42  1  0  0  0
  9 43  1  0  0  0
 10 11  1  0  0  0
 10 44  1  0  0  0
 11 12  1  0  0  0
 11 14  2  0  0  0
 12 13  1  0  0  0
 13 45  1  0  0  0
 13 46  1  0  0  0
 13 47  1  0  0  0
 14 48  1  0  0  0
 15 16  1  0  0  0
 15 49  1  0  0  0
 15 50  1  0  0  0
 16 17  1  0  0  0
 16 51  1  0  0  0
 16 52  1  0  0  0
 17 30  1  0  0  0
 17 18  2  0  0  0
 18 19  1  0  0  0
 19 20  2  0  0  0
 19 53  1  0  0  0
 20 21  1  0  0  0
 20 29  1  0  0  0
 21 22  1  0  0  0
 21 54  1  0  0  0
 21 55  1  0  0  0
 22 27  1  0  0  0
 22 23  2  0  0  0
 23 24  1  0  0  0
 23 28  1  0  0  0
 24 25  1  0  0  0
 24 26  1  0  0  0
 25 56  1  0  0  0
 25 57  1  0  0  0
 25 58  1  0  0  0
 26 27  2  0  0  0
 26 59  1  0  0  0
 27 60  1  0  0  0
 28 61  1  0  0  0
 28 69  1  0  0  0
 29 30  2  0  0  0
 29 62  1  0  0  0
 30 31  1  0  0  0
 31 37  1  0  0  0
 31 32  2  0  0  0
 32 33  1  0  0  0
 32 34  1  0  0  0
 33 63  1  0  0  0
 33 64  1  0  0  0
 33 65  1  0  0  0
 34 35  2  0  0  0
 34 70  1  0  0  0
 35 36  1  0  0  0
 35 66  1  0  0  0
 36 37  2  0  0  0
 36 67  1  0  0  0
 37 68  1  0  0  0
M  CHG  2  22   1  34   1
M  END
> <s_m_source_file>
/home/yujie/leadopt/data/result/selection/WDR5/lig_4.sdf

> <i_m_source_file_index>
1

> <i_lp_mmshare_version>
51139

> <i_f3d_flags>
0

> <s_epik_input>
W0NIM11PYyhbY0hdMSlbY0hdYyhPW0NIM10pW2NIXWMxW0NIMl1OKFtDSDJdW0NIMl0yKUMoPU8pYyhjMjMpW2NIXWMoW0NIMl1uNC9jKD1OL1tIXSluKFtDSDNdKVtjSF1bY0hdNClbY0hdYzMtYzVjKFtDSDNdKW5bY0hdW2NIXVtjSF01

> <s_epik_cmdline>
J2VwaWtfcHl0aG9uJywgJy1waHQnLCAnMi4wJywgJy1waCcsICc3LjAnLCAnLXRuJywgJzgnLCAnLW1hJywgJzIwMCcsICctaW1hZScsICc8aW5maWxlLm1hZT4nLCAnLW9tYWUnLCAnPG91dGZpbGUubWFlPic=

> <r_lp_tautomer_probability>
1

> <r_epik_Ionization_Penalty>
  2.0574

> <r_epik_Ionization_Penalty_Charging>
  2.0573

> <r_epik_Ionization_Penalty_Neutral>
  0.0001

> <r_epik_State_Penalty>
  2.1903

> <r_epik_Charging_Adjusted_Penalty>
4.2476

> <i_epik_Tot_Q>
2

> <i_epik_Tot_abs_Q>
2

> <s_lp_Force_Field>
OPLS3e

> <r_lp_Energy>
65.8067

> <b_lp_Chiralities_Consistent>
1

> <s_lp_Variant>
/home/yujie/leadopt/data/result/selection/WDR5/lig_4.sdf:1-2

> <s_i_glide_gridfile>
glide-grid_WDR5

> <i_i_glide_lignum>
2

> <i_i_glide_rotatable_bonds>
7

> <r_i_docking_score>
-8.74213176591275

> <r_i_glide_ligand_efficiency>
-0.236273831511155

> <r_i_glide_ligand_efficiency_sa>
-0.787316823385941

> <r_i_glide_ligand_efficiency_ln>
-1.89596343538014

> <r_i_glide_gscore>
-10.9324017659128

> <r_i_glide_lipo>
-4.08108309088419

> <r_i_glide_hbond>
-0.521582126442108

> <r_i_glide_metal>
-0

> <r_i_glide_rewards>
-2.47923308687705

> <r_i_glide_evdw>
-57.7906608581543

> <r_i_glide_ecoul>
-9.13264846801758

> <r_i_glide_erotb>
0.408926851400945

> <r_i_glide_esite>
0

> <r_i_glide_emodel>
-114.231369679937

> <r_i_glide_energy>
-66.9233093261719

> <r_i_glide_einternal>
11.7367115020752

> <i_i_glide_confnum>
57

> <i_i_glide_posenum>
218

> <r_i_glide_eff_state_penalty>
2.19027

$$$$
