/home/yujie/leadopt/data/result/selection/WDR5/lig_19.sdf:1
                    3D
 Schrodinger Suite 2020-3.
 63 67  0  0  1  0            999 V2000
   12.4739   20.3677   23.8264 O   0  0  0  0  0  0
   12.0493   19.2211   23.9957 C   0  0  0  0  0  0
   12.2352   18.5637   25.1834 N   0  0  0  0  0  0
   13.0745   19.1785   26.2350 C   0  0  0  0  0  0
   14.5363   18.7292   26.3145 C   0  0  0  0  0  0
   15.2253   18.1923   25.2200 C   0  0  0  0  0  0
   16.5777   17.8202   25.3364 C   0  0  0  0  0  0
   17.3505   17.3181   24.3095 O   0  0  0  0  0  0
   16.7819   17.1832   23.0160 C   0  0  0  0  0  0
   17.2212   17.9834   26.5617 C   0  0  0  0  0  0
   16.5515   18.5247   27.6679 C   0  0  0  0  0  0
   17.1362   18.7537   28.8976 O   0  0  0  0  0  0
   18.5402   18.5614   29.0445 C   0  0  0  0  0  0
   15.2094   18.8793   27.5293 C   0  0  0  0  0  0
   11.8268   17.1586   25.4053 C   0  0  0  0  0  0
   10.5762   16.7414   24.6074 C   0  0  0  0  0  0
   10.6142   17.2544   23.1783 C   0  0  0  0  0  0
   11.2742   18.4692   22.9250 C   0  0  0  0  0  0
   11.2243   19.0336   21.6408 C   0  0  0  0  0  0
   10.6267   18.3497   20.5826 C   0  0  0  0  0  0
   10.6254   18.9385   19.1818 C   0  0  0  0  0  0
   11.8079   18.5870   18.4145 N   0  0  0  0  0  0
   12.1421   17.3774   17.8567 C   0  0  0  0  0  0
   13.3006   17.4339   17.2494 N   0  0  0  0  0  0
   13.7737   18.7366   17.4060 N   0  0  0  0  0  0
   12.8796   19.3854   18.1064 C   0  0  0  0  0  0
   10.0499   17.1038   20.8149 C   0  0  0  0  0  0
   10.0279   16.5616   22.1004 C   0  0  0  0  0  0
    9.3652   15.2406   22.2652 C   0  0  0  0  0  0
    9.9722   13.9978   22.2313 C   0  0  0  0  0  0
    8.9719   13.0847   22.4138 N   0  0  0  0  0  0
    9.0736   11.6374   22.5006 C   0  0  0  0  0  0
    7.7781   13.6660   22.5711 N   0  0  0  0  0  0
    7.9946   14.9633   22.4658 C   0  0  0  0  0  0
    6.8384   15.9429   22.5925 C   0  0  0  0  0  0
    7.0231   17.0164   21.8281 F   0  0  0  0  0  0
    5.6757   15.3974   22.2263 F   0  0  0  0  0  0
    6.7092   16.3652   23.8519 F   0  0  0  0  0  0
   13.0656   20.2681   26.1659 H   0  0  0  0  0  0
   12.6076   18.9567   27.1936 H   0  0  0  0  0  0
   14.7142   18.0839   24.2768 H   0  0  0  0  0  0
   17.5365   16.8009   22.3288 H   0  0  0  0  0  0
   15.9529   16.4766   23.0267 H   0  0  0  0  0  0
   16.4358   18.1418   22.6255 H   0  0  0  0  0  0
   18.2613   17.7001   26.6259 H   0  0  0  0  0  0
   18.8368   18.8591   30.0501 H   0  0  0  0  0  0
   18.8195   17.5150   28.9137 H   0  0  0  0  0  0
   19.1084   19.1742   28.3421 H   0  0  0  0  0  0
   14.7003   19.2990   28.3823 H   0  0  0  0  0  0
   12.6258   16.5425   24.9903 H   0  0  0  0  0  0
   11.8109   16.8835   26.4593 H   0  0  0  0  0  0
    9.6844   17.1206   25.1070 H   0  0  0  0  0  0
   10.4842   15.6552   24.6401 H   0  0  0  0  0  0
   11.6731   19.9968   21.4376 H   0  0  0  0  0  0
    9.7440   18.6119   18.6269 H   0  0  0  0  0  0
   10.5558   20.0276   19.2251 H   0  0  0  0  0  0
   11.4883   16.5207   17.9439 H   0  0  0  0  0  0
   12.9083   20.4176   18.4232 H   0  0  0  0  0  0
    9.6095   16.5604   19.9912 H   0  0  0  0  0  0
   11.0038   13.6927   22.1087 H   0  0  0  0  0  0
   10.0779   11.3147   22.2204 H   0  0  0  0  0  0
    8.3515   11.1744   21.8261 H   0  0  0  0  0  0
    8.8802   11.3181   23.5273 H   0  0  0  0  0  0
  1  2  2  0  0  0
  2 18  1  0  0  0
  2  3  1  0  0  0
  3  4  1  0  0  0
  3 15  1  0  0  0
  4  5  1  0  0  0
  4 39  1  0  0  0
  4 40  1  0  0  0
  5 14  1  0  0  0
  5  6  2  0  0  0
  6  7  1  0  0  0
  6 41  1  0  0  0
  7  8  1  0  0  0
  7 10  2  0  0  0
  8  9  1  0  0  0
  9 42  1  0  0  0
  9 43  1  0  0  0
  9 44  1  0  0  0
 10 11  1  0  0  0
 10 45  1  0  0  0
 11 12  1  0  0  0
 11 14  2  0  0  0
 12 13  1  0  0  0
 13 46  1  0  0  0
 13 47  1  0  0  0
 13 48  1  0  0  0
 14 49  1  0  0  0
 15 16  1  0  0  0
 15 50  1  0  0  0
 15 51  1  0  0  0
 16 17  1  0  0  0
 16 52  1  0  0  0
 16 53  1  0  0  0
 17 28  1  0  0  0
 17 18  2  0  0  0
 18 19  1  0  0  0
 19 20  2  0  0  0
 19 54  1  0  0  0
 20 21  1  0  0  0
 20 27  1  0  0  0
 21 22  1  0  0  0
 21 55  1  0  0  0
 21 56  1  0  0  0
 22 26  1  0  0  0
 22 23  1  0  0  0
 23 24  2  0  0  0
 23 57  1  0  0  0
 24 25  1  0  0  0
 25 26  2  0  0  0
 26 58  1  0  0  0
 27 28  2  0  0  0
 27 59  1  0  0  0
 28 29  1  0  0  0
 29 34  1  0  0  0
 29 30  2  0  0  0
 30 31  1  0  0  0
 30 60  1  0  0  0
 31 32  1  0  0  0
 31 33  1  0  0  0
 32 61  1  0  0  0
 32 62  1  0  0  0
 32 63  1  0  0  0
 33 34  2  0  0  0
 34 35  1  0  0  0
 35 36  1  0  0  0
 35 37  1  0  0  0
 35 38  1  0  0  0
M  END
> <s_m_source_file>
/home/yujie/leadopt/data/result/selection/WDR5/lig_19.sdf

> <i_m_source_file_index>
1

> <i_lp_mmshare_version>
51139

> <i_f3d_flags>
0

> <s_epik_input>
W0NIM11PYyhbY0hdMSlbY0hdYyhPW0NIM10pW2NIXWMxW0NIMl1OKFtDSDJdW0NIMl0yKUMoPU8pYyhjMjMpW2NIXWMoW0NIMl1uNFtjSF1ubltjSF00KVtjSF1jMy1jNVtjSF1uKFtDSDNdKW5jNUMoRikoRilG

> <s_epik_cmdline>
J2VwaWtfcHl0aG9uJywgJy1waHQnLCAnMi4wJywgJy1waCcsICc3LjAnLCAnLXRuJywgJzgnLCAnLW1hJywgJzIwMCcsICctaW1hZScsICc8aW5maWxlLm1hZT4nLCAnLW9tYWUnLCAnPG91dGZpbGUubWFlPic=

> <r_lp_tautomer_probability>
1

> <r_epik_Ionization_Penalty>
  0.0000

> <r_epik_Ionization_Penalty_Charging>
  0.0000

> <r_epik_Ionization_Penalty_Neutral>
  0.0000

> <r_epik_State_Penalty>
 -0.0000

> <r_epik_Charging_Adjusted_Penalty>
0

> <i_epik_Tot_Q>
0

> <i_epik_Tot_abs_Q>
0

> <s_lp_Force_Field>
OPLS3e

> <r_lp_Energy>
55.9972

> <b_lp_Chiralities_Consistent>
1

> <s_lp_Variant>
/home/yujie/leadopt/data/result/selection/WDR5/lig_19.sdf:1-1

> <s_i_glide_gridfile>
glide-grid_WDR5

> <i_i_glide_lignum>
1

> <i_i_glide_rotatable_bonds>
8

> <r_i_docking_score>
-10.3072448424119

> <r_i_glide_ligand_efficiency>
-0.27124328532663

> <r_i_glide_ligand_efficiency_sa>
-0.911913253421762

> <r_i_glide_ligand_efficiency_ln>
-2.22254519644764

> <r_i_glide_gscore>
-10.3072448424119

> <r_i_glide_lipo>
-3.39266080282506

> <r_i_glide_hbond>
-0.32

> <r_i_glide_metal>
-0

> <r_i_glide_rewards>
-2.5111628908087

> <r_i_glide_evdw>
-60.7032089233398

> <r_i_glide_ecoul>
-9.30424690246582

> <r_i_glide_erotb>
0.371365015133579

> <r_i_glide_esite>
-0.0239886823748694

> <r_i_glide_emodel>
-111.568172315097

> <r_i_glide_energy>
-70.0074558258057

> <r_i_glide_einternal>
2.72509980201721

> <i_i_glide_confnum>
106

> <i_i_glide_posenum>
210

> <r_i_glide_eff_state_penalty>
-0

$$$$
