/home/yujie/leadopt/data/result/selection/WDR5/lig_21.sdf:1
                    3D
 Schrodinger Suite 2020-3.
 71 75  0  0  1  0            999 V2000
   12.4979   20.2356   23.8288 O   0  0  0  0  0  0
   12.0773   19.0982   24.0561 C   0  0  0  0  0  0
   12.3050   18.4739   25.2537 N   0  0  0  0  0  0
   13.1690   19.1204   26.2623 C   0  0  0  0  0  0
   14.6083   18.6042   26.3457 C   0  0  0  0  0  0
   15.2464   18.5819   27.5879 C   0  0  0  0  0  0
   16.5639   18.1481   27.7204 C   0  0  0  0  0  0
   17.0993   18.1738   28.9896 O   0  0  0  0  0  0
   18.4573   17.7896   29.1852 C   0  0  0  0  0  0
   17.2509   17.7196   26.5773 C   0  0  0  0  0  0
   16.6408   17.7292   25.3246 C   0  0  0  0  0  0
   17.4202   17.3094   24.2655 O   0  0  0  0  0  0
   16.8217   17.1976   22.9841 C   0  0  0  0  0  0
   15.3115   18.1703   25.2159 C   0  0  0  0  0  0
   11.9395   17.0664   25.5173 C   0  0  0  0  0  0
   10.6655   16.6111   24.7822 C   0  0  0  0  0  0
   10.6335   17.1028   23.3473 C   0  0  0  0  0  0
   11.2750   18.3156   23.0374 C   0  0  0  0  0  0
   11.1940   18.8493   21.7426 C   0  0  0  0  0  0
   10.5615   18.1395   20.7252 C   0  0  0  0  0  0
   10.5562   18.6645   19.2998 C   0  0  0  0  0  0
   11.7164   18.2513   18.5214 N   0  0  0  0  0  0
   12.6424   19.0892   17.9248 C   0  0  0  0  0  0
   12.6213   20.6033   17.9925 C   0  0  0  0  0  0
   13.6731   21.2704   17.1131 C   0  0  0  0  0  0
   13.5580   18.2891   17.2725 N   0  3  0  0  0  0
   13.2083   16.9602   17.4275 C   0  0  0  0  0  0
   12.0723   16.9417   18.2232 C   0  0  0  0  0  0
    9.9709   16.9140   21.0155 C   0  0  0  0  0  0
   10.0016   16.3952   22.3106 C   0  0  0  0  0  0
    9.3330   15.0794   22.4915 C   0  0  0  0  0  0
    9.9292   13.8278   22.5103 C   0  0  0  0  0  0
    8.9025   12.9323   22.6061 N   0  0  0  0  0  0
    8.9800   11.4819   22.6091 C   0  0  0  0  0  0
    7.7090   13.5295   22.6924 N   0  0  0  0  0  0
    7.9534   14.8254   22.6266 C   0  0  0  0  0  0
    6.8068   15.8254   22.6950 C   0  0  0  0  0  0
    6.5910   16.2175   23.9503 F   0  0  0  0  0  0
    7.0584   16.9186   21.9759 F   0  0  0  0  0  0
    5.6731   15.3121   22.2277 F   0  0  0  0  0  0
   13.2068   20.2027   26.1321 H   0  0  0  0  0  0
   12.7018   18.9743   27.2372 H   0  0  0  0  0  0
   14.7266   18.9204   28.4722 H   0  0  0  0  0  0
   18.7127   17.8993   30.2414 H   0  0  0  0  0  0
   18.6188   16.7436   28.9142 H   0  0  0  0  0  0
   19.1472   18.4185   28.6160 H   0  0  0  0  0  0
   18.2702   17.3732   26.6374 H   0  0  0  0  0  0
   17.5444   16.8005   22.2741 H   0  0  0  0  0  0
   15.9783   16.5089   23.0232 H   0  0  0  0  0  0
   16.4800   18.1663   22.6141 H   0  0  0  0  0  0
   14.8262   18.1987   24.2562 H   0  0  0  0  0  0
   12.7343   16.4601   25.0791 H   0  0  0  0  0  0
   11.9822   16.8053   26.5747 H   0  0  0  0  0  0
    9.7867   16.9774   25.3155 H   0  0  0  0  0  0
   10.5991   15.5233   24.8252 H   0  0  0  0  0  0
   11.6712   19.7904   21.5001 H   0  0  0  0  0  0
    9.6732   18.3168   18.7687 H   0  0  0  0  0  0
   10.4761   19.7507   19.3108 H   0  0  0  0  0  0
   11.6412   20.9962   17.7204 H   0  0  0  0  0  0
   12.7921   20.9081   19.0240 H   0  0  0  0  0  0
   13.6416   22.3570   17.1866 H   0  0  0  0  0  0
   14.6721   20.9583   17.4278 H   0  0  0  0  0  0
   13.5276   20.9943   16.0677 H   0  0  0  0  0  0
   13.7891   16.1595   16.9846 H   0  0  0  0  0  0
   11.4817   16.1191   18.5994 H   0  0  0  0  0  0
    9.4885   16.3608   20.2273 H   0  0  0  0  0  0
   10.9551   13.4951   22.4254 H   0  0  0  0  0  0
   10.0079   11.1647   22.4246 H   0  0  0  0  0  0
    8.3375   11.0812   21.8236 H   0  0  0  0  0  0
    8.6581   11.0983   23.5782 H   0  0  0  0  0  0
   14.3604   18.6257   16.7578 H   0  0  0  0  0  0
  1  2  2  0  0  0
  2 18  1  0  0  0
  2  3  1  0  0  0
  3  4  1  0  0  0
  3 15  1  0  0  0
  4  5  1  0  0  0
  4 41  1  0  0  0
  4 42  1  0  0  0
  5 14  1  0  0  0
  5  6  2  0  0  0
  6  7  1  0  0  0
  6 43  1  0  0  0
  7  8  1  0  0  0
  7 10  2  0  0  0
  8  9  1  0  0  0
  9 44  1  0  0  0
  9 45  1  0  0  0
  9 46  1  0  0  0
 10 11  1  0  0  0
 10 47  1  0  0  0
 11 12  1  0  0  0
 11 14  2  0  0  0
 12 13  1  0  0  0
 13 48  1  0  0  0
 13 49  1  0  0  0
 13 50  1  0  0  0
 14 51  1  0  0  0
 15 16  1  0  0  0
 15 52  1  0  0  0
 15 53  1  0  0  0
 16 17  1  0  0  0
 16 54  1  0  0  0
 16 55  1  0  0  0
 17 30  1  0  0  0
 17 18  2  0  0  0
 18 19  1  0  0  0
 19 20  2  0  0  0
 19 56  1  0  0  0
 20 21  1  0  0  0
 20 29  1  0  0  0
 21 22  1  0  0  0
 21 57  1  0  0  0
 21 58  1  0  0  0
 22 28  1  0  0  0
 22 23  1  0  0  0
 23 24  1  0  0  0
 23 26  2  0  0  0
 24 25  1  0  0  0
 24 59  1  0  0  0
 24 60  1  0  0  0
 25 61  1  0  0  0
 25 62  1  0  0  0
 25 63  1  0  0  0
 26 27  1  0  0  0
 26 71  1  0  0  0
 27 28  2  0  0  0
 27 64  1  0  0  0
 28 65  1  0  0  0
 29 30  2  0  0  0
 29 66  1  0  0  0
 30 31  1  0  0  0
 31 36  1  0  0  0
 31 32  2  0  0  0
 32 33  1  0  0  0
 32 67  1  0  0  0
 33 34  1  0  0  0
 33 35  1  0  0  0
 34 68  1  0  0  0
 34 69  1  0  0  0
 34 70  1  0  0  0
 35 36  2  0  0  0
 36 37  1  0  0  0
 37 38  1  0  0  0
 37 39  1  0  0  0
 37 40  1  0  0  0
M  CHG  1  26   1
M  END
> <s_m_source_file>
/home/yujie/leadopt/data/result/selection/WDR5/lig_21.sdf

> <i_m_source_file_index>
1

> <i_lp_mmshare_version>
51139

> <i_f3d_flags>
0

> <s_epik_input>
W0NIM11PYyhbY0hdMSlbY0hdYyhPW0NIM10pW2NIXWMxW0NIMl1OKFtDSDJdW0NIMl0yKUMoPU8pYyhjMjMpW2NIXWMoW0NIMl1uNGMoW0NIMl1bQ0gzXSluW2NIXVtjSF00KVtjSF1jMy1jNVtjSF1uKFtDSDNdKW5jNUMoRikoRilG

> <s_epik_cmdline>
J2VwaWtfcHl0aG9uJywgJy1waHQnLCAnMi4wJywgJy1waCcsICc3LjAnLCAnLXRuJywgJzgnLCAnLW1hJywgJzIwMCcsICctaW1hZScsICc8aW5maWxlLm1hZT4nLCAnLW9tYWUnLCAnPG91dGZpbGUubWFlPic=

> <r_lp_tautomer_probability>
1

> <r_epik_Ionization_Penalty>
  0.1671

> <r_epik_Ionization_Penalty_Charging>
  0.0000

> <r_epik_Ionization_Penalty_Neutral>
  0.1671

> <r_epik_State_Penalty>
  0.1565

> <r_epik_Charging_Adjusted_Penalty>
0.156461

> <i_epik_Tot_Q>
1

> <i_epik_Tot_abs_Q>
1

> <s_lp_Force_Field>
OPLS3e

> <r_lp_Energy>
58.2471

> <b_lp_Chiralities_Consistent>
1

> <s_lp_Variant>
/home/yujie/leadopt/data/result/selection/WDR5/lig_21.sdf:1-1

> <s_i_glide_gridfile>
glide-grid_WDR5

> <i_i_glide_lignum>
1

> <i_i_glide_rotatable_bonds>
9

> <r_i_docking_score>
-11.8660598604804

> <r_i_glide_ligand_efficiency>
-0.29665149651201

> <r_i_glide_ligand_efficiency_sa>
-1.01453384591487

> <r_i_glide_ligand_efficiency_ln>
-2.53068136568735

> <r_i_glide_gscore>
-12.0225208604804

> <r_i_glide_lipo>
-4.67873621332255

> <r_i_glide_hbond>
-0.32

> <r_i_glide_metal>
-0

> <r_i_glide_rewards>
-2.50963502290641

> <r_i_glide_evdw>
-61.3665885925293

> <r_i_glide_ecoul>
-11.2005767822266

> <r_i_glide_erotb>
0.263770283706729

> <r_i_glide_esite>
-0.029503960997704

> <r_i_glide_emodel>
-124.859646011465

> <r_i_glide_energy>
-72.5671653747559

> <r_i_glide_einternal>
7.36271381378174

> <i_i_glide_confnum>
89

> <i_i_glide_posenum>
164

> <r_i_glide_eff_state_penalty>
0.156461

$$$$
