/home/yujie/leadopt/data/result/selection/WDR5/lig_35.sdf:1
                    3D
 Schrodinger Suite 2020-3.
 69 73  0  0  1  0            999 V2000
   12.8740   20.1182   23.7768 O   0  0  0  0  0  0
   12.1805   19.1409   24.0608 C   0  0  0  0  0  0
   12.1732   18.6257   25.3305 N   0  0  0  0  0  0
   13.0292   19.1839   26.4135 C   0  0  2  0  0  0
   12.8442   20.6959   26.6864 C   0  0  0  0  0  0
   14.5098   18.7564   26.3998 C   0  0  0  0  0  0
   15.1601   18.2077   25.2809 C   0  0  0  0  0  0
   16.5121   17.8336   25.3831 C   0  0  0  0  0  0
   17.2706   17.3227   24.3458 O   0  0  0  0  0  0
   16.6978   17.2124   23.0480 C   0  0  0  0  0  0
   17.1565   18.0014   26.6085 C   0  0  0  0  0  0
   16.4487   18.5412   27.6811 C   0  0  0  0  0  0
   15.1481   18.9123   27.5908 N   0  0  0  0  0  0
   11.3064   17.4979   25.7431 C   0  0  0  0  0  0
   10.9176   16.5197   24.6230 C   0  0  0  0  0  0
   10.7437   17.1722   23.2645 C   0  0  0  0  0  0
   11.3376   18.4207   23.0240 C   0  0  0  0  0  0
   11.2709   18.9851   21.7404 C   0  0  0  0  0  0
   10.6381   18.3154   20.6914 C   0  0  0  0  0  0
   10.6723   18.8826   19.2765 C   0  0  0  0  0  0
   11.8005   18.3849   18.4862 N   0  0  0  0  0  0
   12.7602   19.1395   17.8236 C   0  0  0  0  0  0
   12.8207   20.6399   17.6707 C   0  0  0  0  0  0
   13.6208   18.2610   17.1985 N   0  3  0  0  0  0
   13.2046   16.9645   17.4265 C   0  0  0  0  0  0
   12.0733   17.0443   18.2250 C   0  0  0  0  0  0
   10.0115   17.0963   20.9451 C   0  0  0  0  0  0
   10.0541   16.5319   22.2187 C   0  0  0  0  0  0
    9.3414   15.2490   22.4370 C   0  0  0  0  0  0
    9.8373   13.9555   22.3730 C   0  0  0  0  0  0
    8.7921   13.1383   22.7156 N   0  0  0  0  0  0
    8.7791   11.6783   22.8285 C   0  0  0  0  0  0
    8.0730   11.2055   24.1218 C   0  0  0  0  0  0
    7.6727   13.8348   22.9380 N   0  0  0  0  0  0
    7.9960   15.1039   22.8248 C   0  0  0  0  0  0
    6.9618   16.1841   23.1114 C   0  0  0  0  0  0
    7.5304   17.2908   23.5919 F   0  0  0  0  0  0
    6.2964   16.5179   22.0059 F   0  0  0  0  0  0
    6.0728   15.7833   24.0194 F   0  0  0  0  0  0
   12.6532   18.7204   27.3280 H   0  0  0  0  0  0
   13.2209   20.9652   27.6745 H   0  0  0  0  0  0
   13.3795   21.3180   25.9676 H   0  0  0  0  0  0
   11.7931   20.9838   26.6622 H   0  0  0  0  0  0
   14.6331   18.0839   24.3502 H   0  0  0  0  0  0
   17.4432   16.8281   22.3518 H   0  0  0  0  0  0
   15.8564   16.5216   23.0421 H   0  0  0  0  0  0
   16.3673   18.1812   22.6722 H   0  0  0  0  0  0
   18.1972   17.7311   26.7164 H   0  0  0  0  0  0
   16.9288   18.6945   28.6360 H   0  0  0  0  0  0
   11.6151   17.0063   26.6683 H   0  0  0  0  0  0
   10.3647   17.9714   26.0274 H   0  0  0  0  0  0
   11.6982   15.7628   24.5434 H   0  0  0  0  0  0
   10.0257   15.9723   24.9214 H   0  0  0  0  0  0
   11.7306   19.9402   21.5312 H   0  0  0  0  0  0
    9.7499   18.6342   18.7462 H   0  0  0  0  0  0
   10.7092   19.9719   19.3133 H   0  0  0  0  0  0
   13.6859   20.9681   17.0947 H   0  0  0  0  0  0
   11.9395   21.0259   17.1579 H   0  0  0  0  0  0
   12.8756   21.1404   18.6269 H   0  0  0  0  0  0
   13.7364   16.1185   17.0108 H   0  0  0  0  0  0
   11.4413   16.2689   18.6276 H   0  0  0  0  0  0
    9.5052   16.5686   20.1485 H   0  0  0  0  0  0
   10.8131   13.5503   22.1468 H   0  0  0  0  0  0
    8.2868   11.2758   21.9432 H   0  0  0  0  0  0
    9.8107   11.3180   22.8156 H   0  0  0  0  0  0
    8.0735   10.1190   24.2197 H   0  0  0  0  0  0
    8.5741   11.6011   25.0060 H   0  0  0  0  0  0
    7.0315   11.5223   24.1606 H   0  0  0  0  0  0
   14.4189   18.5287   16.6395 H   0  0  0  0  0  0
  1  2  2  0  0  0
  2 17  1  0  0  0
  2  3  1  0  0  0
  3  4  1  0  0  0
  3 14  1  0  0  0
  4 40  1  0  0  0
  4  5  1  0  0  0
  4  6  1  0  0  0
  5 41  1  0  0  0
  5 42  1  0  0  0
  5 43  1  0  0  0
  6 13  1  0  0  0
  6  7  2  0  0  0
  7  8  1  0  0  0
  7 44  1  0  0  0
  8  9  1  0  0  0
  8 11  2  0  0  0
  9 10  1  0  0  0
 10 45  1  0  0  0
 10 46  1  0  0  0
 10 47  1  0  0  0
 11 12  1  0  0  0
 11 48  1  0  0  0
 12 13  2  0  0  0
 12 49  1  0  0  0
 14 15  1  0  0  0
 14 50  1  0  0  0
 14 51  1  0  0  0
 15 16  1  0  0  0
 15 52  1  0  0  0
 15 53  1  0  0  0
 16 28  1  0  0  0
 16 17  2  0  0  0
 17 18  1  0  0  0
 18 19  2  0  0  0
 18 54  1  0  0  0
 19 20  1  0  0  0
 19 27  1  0  0  0
 20 21  1  0  0  0
 20 55  1  0  0  0
 20 56  1  0  0  0
 21 26  1  0  0  0
 21 22  1  0  0  0
 22 23  1  0  0  0
 22 24  2  0  0  0
 23 57  1  0  0  0
 23 58  1  0  0  0
 23 59  1  0  0  0
 24 25  1  0  0  0
 24 69  1  0  0  0
 25 26  2  0  0  0
 25 60  1  0  0  0
 26 61  1  0  0  0
 27 28  2  0  0  0
 27 62  1  0  0  0
 28 29  1  0  0  0
 29 35  1  0  0  0
 29 30  2  0  0  0
 30 31  1  0  0  0
 30 63  1  0  0  0
 31 32  1  0  0  0
 31 34  1  0  0  0
 32 33  1  0  0  0
 32 64  1  0  0  0
 32 65  1  0  0  0
 33 66  1  0  0  0
 33 67  1  0  0  0
 33 68  1  0  0  0
 34 35  2  0  0  0
 35 36  1  0  0  0
 36 37  1  0  0  0
 36 38  1  0  0  0
 36 39  1  0  0  0
M  CHG  1  24   1
M  END
> <s_m_source_file>
/home/yujie/leadopt/data/result/selection/WDR5/lig_35.sdf

> <i_m_source_file_index>
1

> <i_lp_mmshare_version>
51139

> <i_f3d_flags>
0

> <s_epik_input>
bjFbY0hdW2NIXWMoT1tDSDNdKVtjSF1jMVtDQEBIXShbQ0gzXSlOKFtDSDJdW0NIMl0yKUMoPU8pYyhjMjMpW2NIXWMoW0NIMl1uNGMoW0NIM10pbltjSF1bY0hdNClbY0hdYzMtYzVbY0hdbihbQ0gyXVtDSDNdKW5jNUMoRikoRilG

> <s_epik_cmdline>
J2VwaWtfcHl0aG9uJywgJy1waHQnLCAnMi4wJywgJy1waCcsICc3LjAnLCAnLXRuJywgJzgnLCAnLW1hJywgJzIwMCcsICctaW1hZScsICc8aW5maWxlLm1hZT4nLCAnLW9tYWUnLCAnPG91dGZpbGUubWFlPic=

> <r_lp_tautomer_probability>
1

> <r_epik_Ionization_Penalty>
  0.1784

> <r_epik_Ionization_Penalty_Charging>
  0.0000

> <r_epik_Ionization_Penalty_Neutral>
  0.1784

> <r_epik_State_Penalty>
  0.1651

> <r_epik_Charging_Adjusted_Penalty>
0.165139

> <i_epik_Tot_Q>
1

> <i_epik_Tot_abs_Q>
1

> <s_lp_Force_Field>
OPLS3e

> <r_lp_Energy>
58.3786

> <b_lp_Chiralities_Consistent>
1

> <s_lp_Variant>
/home/yujie/leadopt/data/result/selection/WDR5/lig_35.sdf:1-1

> <s_i_glide_gridfile>
glide-grid_WDR5

> <i_i_glide_lignum>
1

> <i_i_glide_rotatable_bonds>
8

> <r_i_docking_score>
-11.0965212221778

> <r_i_glide_ligand_efficiency>
-0.284526185184047

> <r_i_glide_ligand_efficiency_sa>
-0.964888453854997

> <r_i_glide_ligand_efficiency_ln>
-2.37940914352166

> <r_i_glide_gscore>
-11.2616602221778

> <r_i_glide_lipo>
-4.13632364541672

> <r_i_glide_hbond>
-0.32

> <r_i_glide_metal>
-0

> <r_i_glide_rewards>
-2.51984872854753

> <r_i_glide_evdw>
-61.1312370300293

> <r_i_glide_ecoul>
-10.4899845123291

> <r_i_glide_erotb>
0.354974558907628

> <r_i_glide_esite>
-0.0104028787703672

> <r_i_glide_emodel>
-118.841256302419

> <r_i_glide_energy>
-71.6212215423584

> <r_i_glide_einternal>
9.00499534606934

> <i_i_glide_confnum>
27

> <i_i_glide_posenum>
191

> <r_i_glide_eff_state_penalty>
0.165139

$$$$
