/home/yujie/leadopt/data/result/selection/WDR5/lig_28.sdf:1
                    3D
 Schrodinger Suite 2020-3.
 62 66  0  0  1  0            999 V2000
   12.4727   20.4627   23.8223 O   0  0  0  0  0  0
   12.1412   19.2827   23.9677 C   0  0  0  0  0  0
   12.4728   18.5887   25.1012 N   0  0  0  0  0  0
   13.3620   19.2138   26.1027 C   0  0  0  0  0  0
   14.7507   18.5981   26.3261 C   0  0  0  0  0  0
   15.6336   18.1660   25.3113 C   0  0  0  0  0  0
   15.3076   18.2375   23.8305 C   0  0  0  0  0  0
   16.9054   17.7184   25.6914 C   0  0  0  0  0  0
   17.2737   17.7185   27.0353 C   0  0  0  0  0  0
   16.3411   18.1412   27.9781 C   0  0  0  0  0  0
   15.1005   18.5710   27.6409 N   0  0  0  0  0  0
   12.0712   17.1852   25.3522 C   0  0  0  0  0  0
   10.7692   16.7712   24.6335 C   0  0  0  0  0  0
   10.7130   17.2954   23.2096 C   0  0  0  0  0  0
   11.3437   18.5186   22.9275 C   0  0  0  0  0  0
   11.2415   19.0813   21.6452 C   0  0  0  0  0  0
   10.6323   18.3782   20.6058 C   0  0  0  0  0  0
   10.6571   18.9147   19.1776 C   0  0  0  0  0  0
   11.7857   18.4031   18.3949 N   0  0  0  0  0  0
   12.8420   19.1303   17.8653 C   0  0  0  0  0  0
   13.0518   20.6151   17.9650 C   0  0  0  0  0  0
   13.6773   18.2468   17.2186 N   0  3  0  0  0  0
   13.1656   16.9690   17.3273 C   0  0  0  0  0  0
   11.9912   17.0716   18.0575 C   0  0  0  0  0  0
   10.0445   17.1443   20.8751 C   0  0  0  0  0  0
   10.0726   16.6056   22.1621 C   0  0  0  0  0  0
    9.4238   15.2791   22.3410 C   0  0  0  0  0  0
   10.0360   14.0361   22.3086 C   0  0  0  0  0  0
    9.0321   13.1220   22.4706 N   0  0  0  0  0  0
    9.1320   11.6735   22.5147 C   0  0  0  0  0  0
    7.8392   13.7024   22.6305 N   0  0  0  0  0  0
    8.0569   15.0019   22.5539 C   0  0  0  0  0  0
    6.9025   15.9827   22.6998 C   0  0  0  0  0  0
    5.7191   15.4028   22.4934 F   0  0  0  0  0  0
    6.8844   16.5151   23.9214 F   0  0  0  0  0  0
    7.0062   16.9832   21.8270 F   0  0  0  0  0  0
   13.5224   20.2759   25.9084 H   0  0  0  0  0  0
   12.8221   19.1818   27.0499 H   0  0  0  0  0  0
   16.1871   18.0821   23.2044 H   0  0  0  0  0  0
   14.5605   17.4918   23.5671 H   0  0  0  0  0  0
   14.9151   19.2220   23.5840 H   0  0  0  0  0  0
   17.6195   17.3936   24.9483 H   0  0  0  0  0  0
   18.2573   17.3896   27.3366 H   0  0  0  0  0  0
   16.5849   18.1494   29.0302 H   0  0  0  0  0  0
   12.8487   16.5574   24.9146 H   0  0  0  0  0  0
   12.1106   16.9182   26.4091 H   0  0  0  0  0  0
    9.9150   17.1517   25.1947 H   0  0  0  0  0  0
   10.6737   15.6856   24.6644 H   0  0  0  0  0  0
   11.6733   20.0482   21.4293 H   0  0  0  0  0  0
    9.7350   18.6475   18.6590 H   0  0  0  0  0  0
   10.6756   20.0051   19.1801 H   0  0  0  0  0  0
   14.0644   20.9231   17.7043 H   0  0  0  0  0  0
   12.3625   21.1712   17.3287 H   0  0  0  0  0  0
   12.8730   20.9184   18.9909 H   0  0  0  0  0  0
   13.6735   16.1185   16.8944 H   0  0  0  0  0  0
   11.2838   16.3208   18.3766 H   0  0  0  0  0  0
    9.5720   16.5931   20.0753 H   0  0  0  0  0  0
   11.0615   13.7204   22.1723 H   0  0  0  0  0  0
   10.1336   11.3542   22.2273 H   0  0  0  0  0  0
    8.4098   11.2350   21.8257 H   0  0  0  0  0  0
    8.9328   11.3230   23.5281 H   0  0  0  0  0  0
   14.5409   18.4983   16.7560 H   0  0  0  0  0  0
  1  2  2  0  0  0
  2 15  1  0  0  0
  2  3  1  0  0  0
  3  4  1  0  0  0
  3 12  1  0  0  0
  4  5  1  0  0  0
  4 37  1  0  0  0
  4 38  1  0  0  0
  5 11  1  0  0  0
  5  6  2  0  0  0
  6  7  1  0  0  0
  6  8  1  0  0  0
  7 39  1  0  0  0
  7 40  1  0  0  0
  7 41  1  0  0  0
  8  9  2  0  0  0
  8 42  1  0  0  0
  9 10  1  0  0  0
  9 43  1  0  0  0
 10 11  2  0  0  0
 10 44  1  0  0  0
 12 13  1  0  0  0
 12 45  1  0  0  0
 12 46  1  0  0  0
 13 14  1  0  0  0
 13 47  1  0  0  0
 13 48  1  0  0  0
 14 26  1  0  0  0
 14 15  2  0  0  0
 15 16  1  0  0  0
 16 17  2  0  0  0
 16 49  1  0  0  0
 17 18  1  0  0  0
 17 25  1  0  0  0
 18 19  1  0  0  0
 18 50  1  0  0  0
 18 51  1  0  0  0
 19 24  1  0  0  0
 19 20  1  0  0  0
 20 21  1  0  0  0
 20 22  2  0  0  0
 21 52  1  0  0  0
 21 53  1  0  0  0
 21 54  1  0  0  0
 22 23  1  0  0  0
 22 62  1  0  0  0
 23 24  2  0  0  0
 23 55  1  0  0  0
 24 56  1  0  0  0
 25 26  2  0  0  0
 25 57  1  0  0  0
 26 27  1  0  0  0
 27 32  1  0  0  0
 27 28  2  0  0  0
 28 29  1  0  0  0
 28 58  1  0  0  0
 29 30  1  0  0  0
 29 31  1  0  0  0
 30 59  1  0  0  0
 30 60  1  0  0  0
 30 61  1  0  0  0
 31 32  2  0  0  0
 32 33  1  0  0  0
 33 34  1  0  0  0
 33 35  1  0  0  0
 33 36  1  0  0  0
M  CHG  1  22   1
M  END
> <s_m_source_file>
/home/yujie/leadopt/data/result/selection/WDR5/lig_28.sdf

> <i_m_source_file_index>
1

> <i_lp_mmshare_version>
51139

> <i_f3d_flags>
0

> <s_epik_input>
bjFbY0hdW2NIXVtjSF1jKFtDSDNdKWMxW0NIMl1OKFtDSDJdW0NIMl0yKUMoPU8pYyhjMjMpW2NIXWMoW0NIMl1uNGMoW0NIM10pbltjSF1bY0hdNClbY0hdYzMtYzVbY0hdbihbQ0gzXSluYzVDKEYpKEYpRg==

> <s_epik_cmdline>
J2VwaWtfcHl0aG9uJywgJy1waHQnLCAnMi4wJywgJy1waCcsICc3LjAnLCAnLXRuJywgJzgnLCAnLW1hJywgJzIwMCcsICctaW1hZScsICc8aW5maWxlLm1hZT4nLCAnLW9tYWUnLCAnPG91dGZpbGUubWFlPic=

> <r_lp_tautomer_probability>
1

> <r_epik_Ionization_Penalty>
  0.1673

> <r_epik_Ionization_Penalty_Charging>
  0.0000

> <r_epik_Ionization_Penalty_Neutral>
  0.1673

> <r_epik_State_Penalty>
  0.1565

> <r_epik_Charging_Adjusted_Penalty>
0.156461

> <i_epik_Tot_Q>
1

> <i_epik_Tot_abs_Q>
1

> <s_lp_Force_Field>
OPLS3e

> <r_lp_Energy>
48.4731

> <b_lp_Chiralities_Consistent>
1

> <s_lp_Variant>
/home/yujie/leadopt/data/result/selection/WDR5/lig_28.sdf:1-1

> <s_i_glide_gridfile>
glide-grid_WDR5

> <i_i_glide_lignum>
1

> <i_i_glide_rotatable_bonds>
6

> <r_i_docking_score>
-10.9733062747878

> <r_i_glide_ligand_efficiency>
-0.30481406318855

> <r_i_glide_ligand_efficiency_sa>
-1.00647385988632

> <r_i_glide_ligand_efficiency_ln>
-2.39407896468385

> <r_i_glide_gscore>
-11.1297672747878

> <r_i_glide_lipo>
-3.98273087813766

> <r_i_glide_hbond>
-0.32

> <r_i_glide_metal>
-0

> <r_i_glide_rewards>
-2.61298311156963

> <r_i_glide_evdw>
-53.757251739502

> <r_i_glide_ecoul>
-12.7803363800049

> <r_i_glide_erotb>
0.415125521305754

> <r_i_glide_esite>
-0.0242657624104373

> <r_i_glide_emodel>
-111.556714925779

> <r_i_glide_energy>
-66.5375881195068

> <r_i_glide_einternal>
8.36168384552002

> <i_i_glide_confnum>
123

> <i_i_glide_posenum>
376

> <r_i_glide_eff_state_penalty>
0.156461

$$$$
