/home/yujie/leadopt/data/result/selection/WDR5/lig_12.sdf:1
                    3D
 Schrodinger Suite 2020-3.
 73 77  0  0  1  0            999 V2000
   12.6343   20.4204   23.8266 O   0  0  0  0  0  0
   12.1261   19.3164   24.0419 C   0  0  0  0  0  0
   12.2752   18.6900   25.2499 N   0  0  0  0  0  0
   13.1660   19.2735   26.2735 C   0  0  0  0  0  0
   14.5942   18.7280   26.3510 C   0  0  0  0  0  0
   15.2463   18.7422   27.5869 C   0  0  0  0  0  0
   16.5598   18.2963   27.7192 C   0  0  0  0  0  0
   17.1212   18.3704   28.9804 O   0  0  0  0  0  0
   18.4841   17.9927   29.1533 C   0  0  0  0  0  0
   17.2253   17.8155   26.5835 C   0  0  0  0  0  0
   16.5977   17.7819   25.3398 C   0  0  0  0  0  0
   17.3639   17.3182   24.2905 O   0  0  0  0  0  0
   16.7776   17.2054   23.0048 C   0  0  0  0  0  0
   15.2743   18.2378   25.2299 C   0  0  0  0  0  0
   11.7566   17.3320   25.5261 C   0  0  0  0  0  0
   10.4385   17.0346   24.7887 C   0  0  0  0  0  0
   10.4892   17.4770   23.3357 C   0  0  0  0  0  0
   11.2751   18.5960   23.0124 C   0  0  0  0  0  0
   11.2559   19.1113   21.7070 C   0  0  0  0  0  0
   10.5403   18.4695   20.6958 C   0  0  0  0  0  0
   10.5726   18.9964   19.2632 C   0  0  0  0  0  0
   11.7335   18.5495   18.4898 N   0  3  0  0  0  0
   12.6723   19.3462   17.8503 C   0  0  0  0  0  0
   13.5814   18.5217   17.2042 N   0  0  0  0  0  0
   14.7284   18.9503   16.4176 C   0  0  0  0  0  0
   13.1984   17.2055   17.4326 C   0  0  0  0  0  0
   12.0585   17.2261   18.2244 C   0  0  0  0  0  0
   12.6826   20.6991   17.8258 N   0  0  0  0  0  0
    9.8142   17.3226   21.0021 C   0  0  0  0  0  0
    9.7808   16.8268   22.3076 C   0  0  0  0  0  0
    9.0094   15.5725   22.5238 C   0  0  0  0  0  0
    9.5378   14.3238   22.8228 C   0  0  0  0  0  0
   10.9530   13.8590   23.0822 C   0  0  0  0  0  0
    8.4578   13.4784   22.8169 N   0  0  0  0  0  0
    8.4453   12.0411   23.0639 C   0  0  0  0  0  0
    7.2982   14.1200   22.6308 N   0  0  0  0  0  0
    7.6169   15.3824   22.4646 C   0  0  0  0  0  0
    6.5187   16.3963   22.2314 C   0  0  0  0  0  0
   13.2266   20.3585   26.1729 H   0  0  0  0  0  0
   12.6901   19.1076   27.2406 H   0  0  0  0  0  0
   14.7385   19.1254   28.4594 H   0  0  0  0  0  0
   18.7708   18.1364   30.1944 H   0  0  0  0  0  0
   18.6433   16.9410   28.9114 H   0  0  0  0  0  0
   19.1502   18.6035   28.5419 H   0  0  0  0  0  0
   18.2445   17.4676   26.6430 H   0  0  0  0  0  0
   17.5128   16.8062   22.3052 H   0  0  0  0  0  0
   15.9301   16.5199   23.0259 H   0  0  0  0  0  0
   16.4522   18.1754   22.6262 H   0  0  0  0  0  0
   14.7782   18.2376   24.2733 H   0  0  0  0  0  0
   12.4784   16.6231   25.1113 H   0  0  0  0  0  0
   11.7466   17.0946   26.5916 H   0  0  0  0  0  0
    9.6213   17.5502   25.2955 H   0  0  0  0  0  0
   10.2105   15.9747   24.8841 H   0  0  0  0  0  0
   11.7975   20.0100   21.4608 H   0  0  0  0  0  0
    9.6742   18.6991   18.7210 H   0  0  0  0  0  0
   10.5474   20.0866   19.2791 H   0  0  0  0  0  0
   15.2727   19.7303   16.9483 H   0  0  0  0  0  0
   15.4070   18.1185   16.2415 H   0  0  0  0  0  0
   14.3802   19.3265   15.4531 H   0  0  0  0  0  0
   13.7596   16.3777   17.0184 H   0  0  0  0  0  0
   11.4477   16.4205   18.6126 H   0  0  0  0  0  0
   12.9617   21.1948   16.9874 H   0  0  0  0  0  0
    9.2722   16.8108   20.2182 H   0  0  0  0  0  0
   11.6375   14.6846   23.2698 H   0  0  0  0  0  0
   11.0148   13.1885   23.9411 H   0  0  0  0  0  0
   11.3410   13.3187   22.2277 H   0  0  0  0  0  0
    8.4682   11.8590   24.1397 H   0  0  0  0  0  0
    9.3226   11.5800   22.6049 H   0  0  0  0  0  0
    7.5499   11.5882   22.6362 H   0  0  0  0  0  0
    6.9132   17.3804   21.9785 H   0  0  0  0  0  0
    5.8460   16.1008   21.4269 H   0  0  0  0  0  0
    5.9068   16.5188   23.1233 H   0  0  0  0  0  0
   12.3524   21.2297   18.6236 H   0  0  0  0  0  0
  1  2  2  0  0  0
  2 18  1  0  0  0
  2  3  1  0  0  0
  3  4  1  0  0  0
  3 15  1  0  0  0
  4  5  1  0  0  0
  4 39  1  0  0  0
  4 40  1  0  0  0
  5 14  1  0  0  0
  5  6  2  0  0  0
  6  7  1  0  0  0
  6 41  1  0  0  0
  7  8  1  0  0  0
  7 10  2  0  0  0
  8  9  1  0  0  0
  9 42  1  0  0  0
  9 43  1  0  0  0
  9 44  1  0  0  0
 10 11  1  0  0  0
 10 45  1  0  0  0
 11 12  1  0  0  0
 11 14  2  0  0  0
 12 13  1  0  0  0
 13 46  1  0  0  0
 13 47  1  0  0  0
 13 48  1  0  0  0
 14 49  1  0  0  0
 15 16  1  0  0  0
 15 50  1  0  0  0
 15 51  1  0  0  0
 16 17  1  0  0  0
 16 52  1  0  0  0
 16 53  1  0  0  0
 17 30  1  0  0  0
 17 18  2  0  0  0
 18 19  1  0  0  0
 19 20  2  0  0  0
 19 54  1  0  0  0
 20 21  1  0  0  0
 20 29  1  0  0  0
 21 22  1  0  0  0
 21 55  1  0  0  0
 21 56  1  0  0  0
 22 27  1  0  0  0
 22 23  2  0  0  0
 23 24  1  0  0  0
 23 28  1  0  0  0
 24 25  1  0  0  0
 24 26  1  0  0  0
 25 57  1  0  0  0
 25 58  1  0  0  0
 25 59  1  0  0  0
 26 27  2  0  0  0
 26 60  1  0  0  0
 27 61  1  0  0  0
 28 62  1  0  0  0
 28 73  1  0  0  0
 29 30  2  0  0  0
 29 63  1  0  0  0
 30 31  1  0  0  0
 31 37  1  0  0  0
 31 32  2  0  0  0
 32 33  1  0  0  0
 32 34  1  0  0  0
 33 64  1  0  0  0
 33 65  1  0  0  0
 33 66  1  0  0  0
 34 35  1  0  0  0
 34 36  1  0  0  0
 35 67  1  0  0  0
 35 68  1  0  0  0
 35 69  1  0  0  0
 36 37  2  0  0  0
 37 38  1  0  0  0
 38 70  1  0  0  0
 38 71  1  0  0  0
 38 72  1  0  0  0
M  CHG  1  22   1
M  END
> <s_m_source_file>
/home/yujie/leadopt/data/result/selection/WDR5/lig_12.sdf

> <i_m_source_file_index>
1

> <i_lp_mmshare_version>
51139

> <i_f3d_flags>
0

> <s_epik_input>
W0NIM11PYyhbY0hdMSlbY0hdYyhPW0NIM10pW2NIXWMxW0NIMl1OKFtDSDJdW0NIMl0yKUMoPU8pYyhjMjMpW2NIXWMoW0NIMl1uNC9jKD1OL1tIXSluKFtDSDNdKVtjSF1bY0hdNClbY0hdYzMtYzVjKFtDSDNdKW4oW0NIM10pbmM1W0NIM10=

> <s_epik_cmdline>
J2VwaWtfcHl0aG9uJywgJy1waHQnLCAnMi4wJywgJy1waCcsICc3LjAnLCAnLXRuJywgJzgnLCAnLW1hJywgJzIwMCcsICctaW1hZScsICc8aW5maWxlLm1hZT4nLCAnLW9tYWUnLCAnPG91dGZpbGUubWFlPic=

> <r_lp_tautomer_probability>
1

> <r_epik_Ionization_Penalty>
  0.0037

> <r_epik_Ionization_Penalty_Charging>
  0.0000

> <r_epik_Ionization_Penalty_Neutral>
  0.0037

> <r_epik_State_Penalty>
  0.0026

> <r_epik_Charging_Adjusted_Penalty>
0.00255254

> <i_epik_Tot_Q>
1

> <i_epik_Tot_abs_Q>
1

> <s_lp_Force_Field>
OPLS3e

> <r_lp_Energy>
46.7512

> <b_lp_Chiralities_Consistent>
1

> <s_lp_Variant>
/home/yujie/leadopt/data/result/selection/WDR5/lig_12.sdf:1-1

> <s_i_glide_gridfile>
glide-grid_WDR5

> <i_i_glide_lignum>
1

> <i_i_glide_rotatable_bonds>
7

> <r_i_docking_score>
-11.5488647011262

> <r_i_glide_ligand_efficiency>
-0.303917492134899

> <r_i_glide_ligand_efficiency_sa>
-1.02176313301463

> <r_i_glide_ligand_efficiency_ln>
-2.49027496274216

> <r_i_glide_gscore>
-11.5514172411262

> <r_i_glide_lipo>
-4.23463782588108

> <r_i_glide_hbond>
-0.546467867501656

> <r_i_glide_metal>
-0

> <r_i_glide_rewards>
-2.52709165718544

> <r_i_glide_evdw>
-60.1797752380371

> <r_i_glide_ecoul>
-10.8009252548218

> <r_i_glide_erotb>
0.385907659567131

> <r_i_glide_esite>
0

> <r_i_glide_emodel>
-123.098018590797

> <r_i_glide_energy>
-70.9807004928589

> <r_i_glide_einternal>
3.4655659198761

> <i_i_glide_confnum>
103

> <i_i_glide_posenum>
1

> <r_i_glide_eff_state_penalty>
0.00255254

$$$$
