/home/yujie/leadopt/data/result/selection/FGFR2/lig_S8.sdf:1
                    3D
 Schrodinger Suite 2020-3.
 48 51  0  0  1  0            999 V2000
   29.7953   -5.5437  121.7321 C   0  0  0  0  0  0
   31.2730   -5.3419  121.3739 C   0  0  0  0  0  0
   32.0902   -6.1545  122.2089 O   0  0  0  0  0  0
   32.9666   -5.5623  123.0978 C   0  0  0  0  0  0
   34.2613   -6.0704  123.1177 C   0  0  0  0  0  0
   35.1320   -5.7298  124.1416 C   0  0  0  0  0  0
   34.7019   -4.9014  125.1713 C   0  0  0  0  0  0
   33.4161   -4.3312  125.1904 C   0  0  0  0  0  0
   32.9929   -3.4726  126.3727 C   0  0  0  0  0  0
   31.6364   -3.2340  126.6581 C   0  0  0  0  0  0
   31.2050   -2.4368  127.7170 C   0  0  0  0  0  0
   32.1574   -1.8417  128.5542 C   0  0  0  0  0  0
   33.5214   -2.1327  128.3235 C   0  0  0  0  0  0
   34.2024   -1.4709  129.3251 N   0  0  0  0  0  0
   33.3720   -0.7794  130.1242 N   0  0  0  0  0  0
   32.1498   -0.9297  129.6695 C   0  0  0  0  0  0
   30.9904   -0.1896  130.2771 C   0  0  0  0  0  0
   29.8266    0.0389  129.5309 C   0  0  0  0  0  0
   28.7259    0.6966  130.0886 C   0  0  0  0  0  0
   27.4965    0.9782  129.2449 C   0  0  0  0  0  0
   26.4415   -0.1295  129.3427 N   0  3  0  0  0  0
   28.7947    1.1551  131.4065 C   0  0  0  0  0  0
   29.9453    0.9404  132.1618 C   0  0  0  0  0  0
   31.0317    0.2696  131.6021 C   0  0  0  0  0  0
   33.9562   -2.9298  127.2530 C   0  0  0  0  0  0
   32.5701   -4.6475  124.0943 C   0  0  0  0  0  0
   31.3369   -4.1051  123.9933 F   0  0  0  0  0  0
   29.1566   -4.9652  121.0656 H   0  0  0  0  0  0
   29.5750   -5.2338  122.7508 H   0  0  0  0  0  0
   29.5094   -6.5910  121.6386 H   0  0  0  0  0  0
   31.4015   -5.7169  120.3592 H   0  0  0  0  0  0
   31.5556   -4.2873  121.3686 H   0  0  0  0  0  0
   34.5864   -6.7788  122.3675 H   0  0  0  0  0  0
   36.1242   -6.1608  124.1628 H   0  0  0  0  0  0
   35.4023   -4.7377  125.9702 H   0  0  0  0  0  0
   30.8533   -3.6933  126.0807 H   0  0  0  0  0  0
   30.1479   -2.2977  127.8803 H   0  0  0  0  0  0
   35.2028   -1.4665  129.4999 H   0  0  0  0  0  0
   29.7810   -0.2664  128.4981 H   0  0  0  0  0  0
   26.9821    1.8874  129.5646 H   0  0  0  0  0  0
   27.7300    1.0559  128.1810 H   0  0  0  0  0  0
   25.6096    0.1217  128.8274 H   0  0  0  0  0  0
   26.7919   -1.0018  128.9623 H   0  0  0  0  0  0
   27.9656    1.6889  131.8500 H   0  0  0  0  0  0
   29.9987    1.2986  133.1798 H   0  0  0  0  0  0
   31.9113    0.1097  132.2073 H   0  0  0  0  0  0
   35.0139   -3.0754  127.1087 H   0  0  0  0  0  0
   26.1833   -0.2773  130.3080 H   0  0  0  0  0  0
  1  2  1  0  0  0
  1 28  1  0  0  0
  1 29  1  0  0  0
  1 30  1  0  0  0
  2  3  1  0  0  0
  2 31  1  0  0  0
  2 32  1  0  0  0
  3  4  1  0  0  0
  4 26  1  0  0  0
  4  5  2  0  0  0
  5  6  1  0  0  0
  5 33  1  0  0  0
  6  7  2  0  0  0
  6 34  1  0  0  0
  7  8  1  0  0  0
  7 35  1  0  0  0
  8  9  1  0  0  0
  8 26  2  0  0  0
  9 25  1  0  0  0
  9 10  2  0  0  0
 10 11  1  0  0  0
 10 36  1  0  0  0
 11 12  2  0  0  0
 11 37  1  0  0  0
 12 16  1  0  0  0
 12 13  1  0  0  0
 13 14  1  0  0  0
 13 25  2  0  0  0
 14 15  1  0  0  0
 14 38  1  0  0  0
 15 16  2  0  0  0
 16 17  1  0  0  0
 17 24  1  0  0  0
 17 18  2  0  0  0
 18 19  1  0  0  0
 18 39  1  0  0  0
 19 20  1  0  0  0
 19 22  2  0  0  0
 20 21  1  0  0  0
 20 40  1  0  0  0
 20 41  1  0  0  0
 21 42  1  0  0  0
 21 43  1  0  0  0
 21 48  1  0  0  0
 22 23  1  0  0  0
 22 44  1  0  0  0
 23 24  2  0  0  0
 23 45  1  0  0  0
 24 46  1  0  0  0
 25 47  1  0  0  0
 26 27  1  0  0  0
M  CHG  1  21   1
M  END
> <s_m_source_file>
/home/yujie/leadopt/data/result/selection/FGFR2/lig_S8.sdf

> <i_m_source_file_index>
1

> <i_lp_mmshare_version>
51139

> <i_f3d_flags>
0

> <s_epik_input>
W0NIM11bQ0gyXU9jMVtjSF1bY0hdW2NIXWMoYzFGKS1jKFtjSF1bY0hdMilbY0hdYyhjMjMpW25IXW5jMy1jNFtjSF1jKFtDSDJdW05IMl0pW2NIXVtjSF1bY0hdNA==

> <s_epik_cmdline>
J2VwaWtfcHl0aG9uJywgJy1waHQnLCAnMi4wJywgJy1waCcsICc3LjAnLCAnLXRuJywgJzgnLCAnLW1hJywgJzIwMCcsICctaW1hZScsICc8aW5maWxlLm1hZT4nLCAnLW9tYWUnLCAnPG91dGZpbGUubWFlPic=

> <r_lp_tautomer_probability>
0.980392

> <r_epik_Ionization_Penalty>
  0.0285

> <r_epik_Ionization_Penalty_Charging>
  0.0285

> <r_epik_Ionization_Penalty_Neutral>
  0.0000

> <r_epik_State_Penalty>
  0.0325

> <r_epik_Charging_Adjusted_Penalty>
0.0610643

> <i_epik_Tot_Q>
1

> <i_epik_Tot_abs_Q>
1

> <s_lp_Force_Field>
OPLS3e

> <r_lp_Energy>
41.195

> <b_lp_Chiralities_Consistent>
1

> <s_lp_Variant>
/home/yujie/leadopt/data/result/selection/FGFR2/lig_S8.sdf:1-1

> <s_i_glide_gridfile>
glide-grid_FGFR2

> <i_i_glide_lignum>
1

> <i_i_glide_rotatable_bonds>
5

> <r_i_docking_score>
-9.36601476924808

> <r_i_glide_ligand_efficiency>
-0.346889435898077

> <r_i_glide_ligand_efficiency_sa>
-1.04066830655094

> <r_i_glide_ligand_efficiency_ln>
-2.18025382745962

> <r_i_glide_gscore>
-9.39854906924808

> <r_i_glide_lipo>
-4.00045830361555

> <r_i_glide_hbond>
-0.638355922024249

> <r_i_glide_metal>
-0

> <r_i_glide_rewards>
-1.94530022059219

> <r_i_glide_evdw>
-38.8683853149414

> <r_i_glide_ecoul>
-7.80556344985962

> <r_i_glide_erotb>
0.306998689640605

> <r_i_glide_esite>
-0.00717952943068015

> <r_i_glide_emodel>
-67.2843777604656

> <r_i_glide_energy>
-46.673948764801

> <r_i_glide_einternal>
15.0832586288452

> <i_i_glide_confnum>
46

> <i_i_glide_posenum>
158

> <r_i_glide_eff_state_penalty>
0.0325343

$$$$
