/home/yujie/leadopt/data/result/selection/FGFR2/lig_3.sdf:1
                    3D
 Schrodinger Suite 2020-3.
 26 28  0  0  1  0            999 V2000
   34.6025   -6.5298  122.0905 O   0  0  0  0  0  0
   34.2266   -5.7567  123.1506 C   0  0  0  0  0  0
   33.2906   -4.7471  122.9626 C   0  0  0  0  0  0
   32.8948   -3.9698  124.0451 C   0  0  0  0  0  0
   34.7694   -6.0026  124.4075 C   0  0  0  0  0  0
   34.3602   -5.2339  125.4914 C   0  0  0  0  0  0
   33.4214   -4.2079  125.3213 C   0  0  0  0  0  0
   32.9971   -3.3754  126.4772 C   0  0  0  0  0  0
   31.6478   -3.0271  126.6375 C   0  0  0  0  0  0
   31.2101   -2.2242  127.6895 C   0  0  0  0  0  0
   32.1654   -1.7298  128.5843 C   0  0  0  0  0  0
   33.5237   -2.0958  128.4251 C   0  0  0  0  0  0
   34.2025   -1.4212  129.4170 N   0  0  0  0  0  0
   33.3726   -0.6892  130.1778 N   0  0  0  0  0  0
   32.1643   -0.8657  129.7162 C   0  0  0  0  0  0
   33.9582   -2.9298  127.3955 C   0  0  0  0  0  0
   35.3351   -7.1416  122.3025 H   0  0  0  0  0  0
   32.8776   -4.5658  121.9805 H   0  0  0  0  0  0
   32.1777   -3.1775  123.8857 H   0  0  0  0  0  0
   35.4942   -6.7932  124.5454 H   0  0  0  0  0  0
   34.7745   -5.4424  126.4671 H   0  0  0  0  0  0
   30.9150   -3.3931  125.9325 H   0  0  0  0  0  0
   30.1659   -1.9664  127.7907 H   0  0  0  0  0  0
   35.2007   -1.4302  129.6065 H   0  0  0  0  0  0
   31.3198   -0.3668  130.1682 H   0  0  0  0  0  0
   35.0034   -3.1750  127.2800 H   0  0  0  0  0  0
  1  2  1  0  0  0
  1 17  1  0  0  0
  2  3  1  0  0  0
  2  5  2  0  0  0
  3  4  2  0  0  0
  3 18  1  0  0  0
  4  7  1  0  0  0
  4 19  1  0  0  0
  5  6  1  0  0  0
  5 20  1  0  0  0
  6  7  2  0  0  0
  6 21  1  0  0  0
  7  8  1  0  0  0
  8 16  1  0  0  0
  8  9  2  0  0  0
  9 10  1  0  0  0
  9 22  1  0  0  0
 10 11  2  0  0  0
 10 23  1  0  0  0
 11 15  1  0  0  0
 11 12  1  0  0  0
 12 13  1  0  0  0
 12 16  2  0  0  0
 13 14  1  0  0  0
 13 24  1  0  0  0
 14 15  2  0  0  0
 15 25  1  0  0  0
 16 26  1  0  0  0
M  END
> <s_m_source_file>
/home/yujie/leadopt/data/result/selection/FGFR2/lig_3.sdf

> <i_m_source_file_index>
1

> <i_lp_mmshare_version>
51139

> <i_f3d_flags>
0

> <s_epik_input>
W09IXWMxW2NIXVtjSF1jKFtjSF1bY0hdMSktYyhbY0hdW2NIXTIpW2NIXWMoYzIzKVtuSF1uW2NIXTM=

> <s_epik_cmdline>
J2VwaWtfcHl0aG9uJywgJy1waHQnLCAnMi4wJywgJy1waCcsICc3LjAnLCAnLXRuJywgJzgnLCAnLW1hJywgJzIwMCcsICctaW1hZScsICc8aW5maWxlLm1hZT4nLCAnLW9tYWUnLCAnPG91dGZpbGUubWFlPic=

> <r_lp_tautomer_probability>
0.980392

> <r_epik_Ionization_Penalty>
  0.0010

> <r_epik_Ionization_Penalty_Charging>
  0.0000

> <r_epik_Ionization_Penalty_Neutral>
  0.0010

> <r_epik_State_Penalty>
  0.0090

> <r_epik_Charging_Adjusted_Penalty>
0.00904526

> <i_epik_Tot_Q>
0

> <i_epik_Tot_abs_Q>
0

> <s_lp_Force_Field>
OPLS3e

> <r_lp_Energy>
18.9694

> <b_lp_Chiralities_Consistent>
1

> <s_lp_Variant>
/home/yujie/leadopt/data/result/selection/FGFR2/lig_3.sdf:1-1

> <s_i_glide_gridfile>
glide-grid_FGFR2

> <i_i_glide_lignum>
1

> <i_i_glide_rotatable_bonds>
2

> <r_i_docking_score>
-8.58322868137778

> <r_i_glide_ligand_efficiency>
-0.536451792586111

> <r_i_glide_ligand_efficiency_sa>
-1.35177381021686

> <r_i_glide_ligand_efficiency_ln>
-2.27515621588402

> <r_i_glide_gscore>
-8.59227394137778

> <r_i_glide_lipo>
-2.45872554985416

> <r_i_glide_hbond>
-0.666626990847271

> <r_i_glide_metal>
-0

> <r_i_glide_rewards>
-2.91239503661033

> <r_i_glide_evdw>
-25.2813377380371

> <r_i_glide_ecoul>
-10.3560953140259

> <r_i_glide_erotb>
0.262954819939717

> <r_i_glide_esite>
0

> <r_i_glide_emodel>
-55.7688864424535

> <r_i_glide_energy>
-35.637433052063

> <r_i_glide_einternal>
0.265855342149734

> <i_i_glide_confnum>
2

> <i_i_glide_posenum>
46

> <r_i_glide_eff_state_penalty>
0.00904526

$$$$
