/home/yujie/leadopt/data/result/selection/FGFR2/lig_40.sdf:1
                    3D
 Schrodinger Suite 2020-3.
 66 71  0  0  1  0            999 V2000
   34.5999   -6.5298  122.0825 O   0  0  0  0  0  0
   34.2298   -5.7570  123.1448 C   0  0  0  0  0  0
   34.7835   -5.9995  124.3977 C   0  0  0  0  0  0
   34.3774   -5.2337  125.4850 C   0  0  0  0  0  0
   33.2878   -4.7521  122.9625 C   0  0  0  0  0  0
   32.8940   -3.9787  124.0491 C   0  0  0  0  0  0
   33.4295   -4.2150  125.3223 C   0  0  0  0  0  0
   33.0016   -3.3893  126.4821 C   0  0  0  0  0  0
   31.6499   -3.0645  126.6523 C   0  0  0  0  0  0
   31.2073   -2.2652  127.7039 C   0  0  0  0  0  0
   32.1571   -1.7291  128.5879 C   0  0  0  0  0  0
   33.5191   -2.0908  128.4211 C   0  0  0  0  0  0
   34.2024   -1.4140  129.4042 N   0  0  0  0  0  0
   33.3736   -0.6814  130.1628 N   0  0  0  0  0  0
   32.1501   -0.8348  129.7142 C   0  0  0  0  0  0
   30.9949   -0.1037  130.3373 C   0  0  0  0  0  0
   29.8553    0.1902  129.5852 C   0  0  0  0  0  0
   28.7754    0.8500  130.1639 C   0  0  0  0  0  0
   28.8074    1.2435  131.5066 C   0  0  0  0  0  0
   27.7327    1.9491  132.0455 N   0  0  0  0  0  0
   27.5183    2.0595  133.5015 C   0  0  0  0  0  0
   26.0942    2.4927  133.9039 C   0  0  0  0  0  0
   25.7865    3.8546  133.2485 N   0  3  0  0  0  0
   24.3916    4.3639  133.6877 C   0  0  0  0  0  0
   24.1919    5.8357  133.2750 C   0  0  0  0  0  0
   22.8886    6.3578  133.6738 N   0  0  0  0  0  0
   22.5705    6.8618  134.9878 C   0  0  0  0  0  0
   21.1060    7.2306  134.8813 C   0  0  0  0  0  0
   20.7168    6.7134  133.6240 O   0  0  0  0  0  0
   21.7437    6.2285  132.8928 C   0  0  0  0  0  0
   21.6042    5.7772  131.7577 O   0  0  0  0  0  0
   25.8749    3.6536  131.7204 C   0  0  0  0  0  0
   27.2975    3.1824  131.3611 C   0  0  0  0  0  0
   29.9443    0.9347  132.2640 C   0  0  0  0  0  0
   31.0232    0.2702  131.6862 C   0  0  0  0  0  0
   33.9584   -2.9301  127.3964 C   0  0  0  0  0  0
   35.3343   -7.1416  122.2903 H   0  0  0  0  0  0
   35.5137   -6.7861  124.5297 H   0  0  0  0  0  0
   34.7996   -5.4411  126.4576 H   0  0  0  0  0  0
   32.8671   -4.5735  121.9832 H   0  0  0  0  0  0
   32.1698   -3.1919  123.8953 H   0  0  0  0  0  0
   30.9178   -3.4513  125.9575 H   0  0  0  0  0  0
   30.1543   -2.0550  127.8078 H   0  0  0  0  0  0
   35.2011   -1.4238  129.5923 H   0  0  0  0  0  0
   29.8023   -0.0633  128.5390 H   0  0  0  0  0  0
   27.9094    1.0579  129.5535 H   0  0  0  0  0  0
   28.2084    2.7984  133.9073 H   0  0  0  0  0  0
   27.7447    1.1046  133.9791 H   0  0  0  0  0  0
   26.0174    2.6322  134.9839 H   0  0  0  0  0  0
   25.3331    1.7789  133.5800 H   0  0  0  0  0  0
   24.3606    4.2672  134.7755 H   0  0  0  0  0  0
   23.6490    3.6907  133.2501 H   0  0  0  0  0  0
   24.2883    5.9425  132.1937 H   0  0  0  0  0  0
   24.9700    6.4602  133.7173 H   0  0  0  0  0  0
   23.1832    7.7262  135.2479 H   0  0  0  0  0  0
   22.7454    6.1333  135.7813 H   0  0  0  0  0  0
   20.5358    6.7713  135.6909 H   0  0  0  0  0  0
   20.9772    8.3134  134.9050 H   0  0  0  0  0  0
   25.1115    2.9283  131.4267 H   0  0  0  0  0  0
   25.6569    4.6098  131.2442 H   0  0  0  0  0  0
   27.3558    3.0686  130.2795 H   0  0  0  0  0  0
   27.9957    3.9797  131.6270 H   0  0  0  0  0  0
   30.0171    1.2255  133.3014 H   0  0  0  0  0  0
   31.8871    0.0505  132.2954 H   0  0  0  0  0  0
   35.0054   -3.1652  127.2778 H   0  0  0  0  0  0
   26.5000    4.5119  133.5387 H   0  0  0  0  0  0
  1  2  1  0  0  0
  1 37  1  0  0  0
  2  3  1  0  0  0
  2  5  2  0  0  0
  3  4  2  0  0  0
  3 38  1  0  0  0
  4  7  1  0  0  0
  4 39  1  0  0  0
  5  6  1  0  0  0
  5 40  1  0  0  0
  6  7  2  0  0  0
  6 41  1  0  0  0
  7  8  1  0  0  0
  8 36  1  0  0  0
  8  9  2  0  0  0
  9 10  1  0  0  0
  9 42  1  0  0  0
 10 11  2  0  0  0
 10 43  1  0  0  0
 11 15  1  0  0  0
 11 12  1  0  0  0
 12 13  1  0  0  0
 12 36  2  0  0  0
 13 14  1  0  0  0
 13 44  1  0  0  0
 14 15  2  0  0  0
 15 16  1  0  0  0
 16 35  1  0  0  0
 16 17  2  0  0  0
 17 18  1  0  0  0
 17 45  1  0  0  0
 18 19  2  0  0  0
 18 46  1  0  0  0
 19 20  1  0  0  0
 19 34  1  0  0  0
 20 33  1  0  0  0
 20 21  1  0  0  0
 21 22  1  0  0  0
 21 47  1  0  0  0
 21 48  1  0  0  0
 22 23  1  0  0  0
 22 49  1  0  0  0
 22 50  1  0  0  0
 23 24  1  0  0  0
 23 32  1  0  0  0
 23 66  1  0  0  0
 24 25  1  0  0  0
 24 51  1  0  0  0
 24 52  1  0  0  0
 25 26  1  0  0  0
 25 53  1  0  0  0
 25 54  1  0  0  0
 26 30  1  0  0  0
 26 27  1  0  0  0
 27 28  1  0  0  0
 27 55  1  0  0  0
 27 56  1  0  0  0
 28 29  1  0  0  0
 28 57  1  0  0  0
 28 58  1  0  0  0
 29 30  1  0  0  0
 30 31  2  0  0  0
 32 33  1  0  0  0
 32 59  1  0  0  0
 32 60  1  0  0  0
 33 61  1  0  0  0
 33 62  1  0  0  0
 34 35  2  0  0  0
 34 63  1  0  0  0
 35 64  1  0  0  0
 36 65  1  0  0  0
M  CHG  1  23   1
M  END
> <s_m_source_file>
/home/yujie/leadopt/data/result/selection/FGFR2/lig_40.sdf

> <i_m_source_file_index>
1

> <i_lp_mmshare_version>
51139

> <i_f3d_flags>
0

> <s_epik_input>
W09IXWMxW2NIXVtjSF1jKFtjSF1bY0hdMSktYyhbY0hdW2NIXTIpW2NIXWMoYzIzKVtuSF1uYzMtYzRbY0hdW2NIXWMoW2NIXVtjSF00KU41W0NIMl1bQ0gyXU4oW0NIMl1bQ0gyXTUpW0NIMl1bQ0gyXU42W0NIMl1bQ0gyXU9DNj1P

> <s_epik_cmdline>
J2VwaWtfcHl0aG9uJywgJy1waHQnLCAnMi4wJywgJy1waCcsICc3LjAnLCAnLXRuJywgJzgnLCAnLW1hJywgJzIwMCcsICctaW1hZScsICc8aW5maWxlLm1hZT4nLCAnLW9tYWUnLCAnPG91dGZpbGUubWFlPic=

> <r_lp_tautomer_probability>
0.980392

> <r_epik_Ionization_Penalty>
  0.7966

> <r_epik_Ionization_Penalty_Charging>
  0.7955

> <r_epik_Ionization_Penalty_Neutral>
  0.0011

> <r_epik_State_Penalty>
  0.8332

> <r_epik_Charging_Adjusted_Penalty>
1.62868

> <i_epik_Tot_Q>
1

> <i_epik_Tot_abs_Q>
1

> <s_epik_Chemistry_Notes>
This compound has an ester and may undergo hydrolysis at high or low pH.

> <s_lp_Force_Field>
OPLS3e

> <r_lp_Energy>
46.704

> <b_lp_Chiralities_Consistent>
1

> <s_lp_Variant>
/home/yujie/leadopt/data/result/selection/FGFR2/lig_40.sdf:1-2

> <s_i_glide_gridfile>
glide-grid_FGFR2

> <i_i_glide_lignum>
2

> <i_i_glide_rotatable_bonds>
7

> <r_i_docking_score>
-8.27609747111657

> <r_i_glide_ligand_efficiency>
-0.229891596419905

> <r_i_glide_ligand_efficiency_sa>
-0.759085325604037

> <r_i_glide_ligand_efficiency_ln>
-1.80562087388347

> <r_i_glide_gscore>
-9.10925147111657

> <r_i_glide_lipo>
-4.09183453581362

> <r_i_glide_hbond>
-0.662878928324441

> <r_i_glide_metal>
-0

> <r_i_glide_rewards>
-1.05751960768964

> <r_i_glide_evdw>
-41.1782760620117

> <r_i_glide_ecoul>
-10.6522417068481

> <r_i_glide_erotb>
0.363264658002675

> <r_i_glide_esite>
-0.00353299816372999

> <r_i_glide_emodel>
-87.5401301202084

> <r_i_glide_energy>
-51.8305177688599

> <r_i_glide_einternal>
3.88227415084839

> <i_i_glide_confnum>
138

> <i_i_glide_posenum>
377

> <r_i_glide_eff_state_penalty>
0.833154

$$$$
