/home/yujie/leadopt/data/result/selection/FGFR2/lig_42.sdf:1
                    3D
 Schrodinger Suite 2020-3.
 50 54  0  0  1  0            999 V2000
   34.6024   -6.5298  122.0640 O   0  0  0  0  0  0
   34.1977   -5.7813  123.1334 C   0  0  0  0  0  0
   33.0725   -4.9612  123.0396 C   0  0  0  0  0  0
   32.3292   -4.9297  121.9110 F   0  0  0  0  0  0
   32.6907   -4.1831  124.1282 C   0  0  0  0  0  0
   34.8957   -5.8711  124.3349 C   0  0  0  0  0  0
   34.4750   -5.1293  125.4368 C   0  0  0  0  0  0
   33.3836   -4.2537  125.3449 C   0  0  0  0  0  0
   32.9661   -3.4209  126.5077 C   0  0  0  0  0  0
   31.6124   -3.1168  126.7136 C   0  0  0  0  0  0
   31.1837   -2.3068  127.7628 C   0  0  0  0  0  0
   32.1459   -1.7488  128.6178 C   0  0  0  0  0  0
   33.5065   -2.0927  128.4199 C   0  0  0  0  0  0
   34.2024   -1.4039  129.3824 N   0  0  0  0  0  0
   33.3876   -0.6829  130.1625 N   0  0  0  0  0  0
   32.1574   -0.8482  129.7394 C   0  0  0  0  0  0
   31.0161   -0.1295  130.3951 C   0  0  0  0  0  0
   29.8321    0.1273  129.6994 C   0  0  0  0  0  0
   28.7677    0.7672  130.3284 C   0  0  0  0  0  0
   28.8620    1.1713  131.6652 C   0  0  0  0  0  0
   27.7942    1.8219  132.2776 N   0  0  0  0  0  0
   27.6933    1.9297  133.7448 C   0  0  0  0  0  0
   26.2996    2.3478  134.2641 C   0  0  0  0  0  0
   25.8217    3.5613  133.6167 N   0  0  0  0  0  0
   25.8066    3.4036  132.1691 C   0  0  0  0  0  0
   27.1914    2.9959  131.6192 C   0  0  0  0  0  0
   30.0496    0.9108  132.3581 C   0  0  0  0  0  0
   31.1117    0.2699  131.7325 C   0  0  0  0  0  0
   33.9364   -2.9296  127.3911 C   0  0  0  0  0  0
   35.3573   -7.1148  122.2649 H   0  0  0  0  0  0
   31.8378   -3.5305  124.0152 H   0  0  0  0  0  0
   35.7499   -6.5294  124.4190 H   0  0  0  0  0  0
   35.0024   -5.2406  126.3713 H   0  0  0  0  0  0
   30.8619   -3.5265  126.0531 H   0  0  0  0  0  0
   30.1309   -2.1109  127.8922 H   0  0  0  0  0  0
   35.2049   -1.4046  129.5482 H   0  0  0  0  0  0
   29.7280   -0.1453  128.6621 H   0  0  0  0  0  0
   27.8621    0.9409  129.7673 H   0  0  0  0  0  0
   27.9530    0.9718  134.1982 H   0  0  0  0  0  0
   28.4151    2.6694  134.0932 H   0  0  0  0  0  0
   26.3554    2.5216  135.3391 H   0  0  0  0  0  0
   25.5872    1.5383  134.0976 H   0  0  0  0  0  0
   26.3234    4.3866  133.9164 H   0  0  0  0  0  0
   25.5053    4.3486  131.7167 H   0  0  0  0  0  0
   25.0647    2.6543  131.8901 H   0  0  0  0  0  0
   27.8652    3.8428  131.7619 H   0  0  0  0  0  0
   27.0987    2.8396  130.5452 H   0  0  0  0  0  0
   30.1717    1.2142  133.3863 H   0  0  0  0  0  0
   32.0117    0.0838  132.2993 H   0  0  0  0  0  0
   34.9869   -3.1380  127.2530 H   0  0  0  0  0  0
  1  2  1  0  0  0
  1 30  1  0  0  0
  2  3  1  0  0  0
  2  6  2  0  0  0
  3  4  1  0  0  0
  3  5  2  0  0  0
  5  8  1  0  0  0
  5 31  1  0  0  0
  6  7  1  0  0  0
  6 32  1  0  0  0
  7  8  2  0  0  0
  7 33  1  0  0  0
  8  9  1  0  0  0
  9 29  1  0  0  0
  9 10  2  0  0  0
 10 11  1  0  0  0
 10 34  1  0  0  0
 11 12  2  0  0  0
 11 35  1  0  0  0
 12 16  1  0  0  0
 12 13  1  0  0  0
 13 14  1  0  0  0
 13 29  2  0  0  0
 14 15  1  0  0  0
 14 36  1  0  0  0
 15 16  2  0  0  0
 16 17  1  0  0  0
 17 28  1  0  0  0
 17 18  2  0  0  0
 18 19  1  0  0  0
 18 37  1  0  0  0
 19 20  2  0  0  0
 19 38  1  0  0  0
 20 21  1  0  0  0
 20 27  1  0  0  0
 21 26  1  0  0  0
 21 22  1  0  0  0
 22 23  1  0  0  0
 22 39  1  0  0  0
 22 40  1  0  0  0
 23 24  1  0  0  0
 23 41  1  0  0  0
 23 42  1  0  0  0
 24 25  1  0  0  0
 24 43  1  0  0  0
 25 26  1  0  0  0
 25 44  1  0  0  0
 25 45  1  0  0  0
 26 46  1  0  0  0
 26 47  1  0  0  0
 27 28  2  0  0  0
 27 48  1  0  0  0
 28 49  1  0  0  0
 29 50  1  0  0  0
M  END
> <s_m_source_file>
/home/yujie/leadopt/data/result/selection/FGFR2/lig_42.sdf

> <i_m_source_file_index>
1

> <i_lp_mmshare_version>
51139

> <i_f3d_flags>
0

> <s_epik_input>
W09IXWMxYyhGKVtjSF1jKFtjSF1bY0hdMSktYyhbY0hdW2NIXTIpW2NIXWMoYzIzKVtuSF1uYzMtYzRbY0hdW2NIXWMoW2NIXVtjSF00KU41W0NIMl1bQ0gyXVtOSF1bQ0gyXVtDSDJdNQ==

> <s_epik_cmdline>
J2VwaWtfcHl0aG9uJywgJy1waHQnLCAnMi4wJywgJy1waCcsICc3LjAnLCAnLXRuJywgJzgnLCAnLW1hJywgJzIwMCcsICctaW1hZScsICc8aW5maWxlLm1hZT4nLCAnLW9tYWUnLCAnPG91dGZpbGUubWFlPic=

> <r_epik_Ionization_Penalty>
  2.5372

> <r_epik_Ionization_Penalty_Charging>
  0.0000

> <r_epik_Ionization_Penalty_Neutral>
  2.5372

> <r_epik_State_Penalty>
  2.7060

> <r_epik_Charging_Adjusted_Penalty>
2.70602

> <i_epik_Tot_Q>
0

> <i_epik_Tot_abs_Q>
0

> <s_lp_Force_Field>
OPLS3e

> <r_lp_Energy>
48.6276

> <b_lp_Chiralities_Consistent>
1

> <s_lp_Variant>
/home/yujie/leadopt/data/result/selection/FGFR2/lig_42.sdf:1-4

> <s_i_glide_gridfile>
glide-grid_FGFR2

> <i_i_glide_lignum>
4

> <i_i_glide_rotatable_bonds>
4

> <r_i_docking_score>
-6.84585577074061

> <r_i_glide_ligand_efficiency>
-0.236063992094504

> <r_i_glide_ligand_efficiency_sa>
-0.725263374036456

> <r_i_glide_ligand_efficiency_ln>
-1.56752737557552

> <r_i_glide_gscore>
-9.55187577074061

> <r_i_glide_lipo>
-3.97233866483491

> <r_i_glide_hbond>
-0.663717391918925

> <r_i_glide_metal>
-0

> <r_i_glide_rewards>
-1.72211792323784

> <r_i_glide_evdw>
-41.5003929138184

> <r_i_glide_ecoul>
-9.0157299041748

> <r_i_glide_erotb>
0.271178555788593

> <r_i_glide_esite>
-0.0375012152203855

> <r_i_glide_emodel>
-80.5170136983481

> <r_i_glide_energy>
-50.5161228179932

> <r_i_glide_einternal>
0.582596480846405

> <i_i_glide_confnum>
145

> <i_i_glide_posenum>
233

> <r_i_glide_eff_state_penalty>
2.70602

$$$$
