/home/yujie/leadopt/data/result/selection/FGFR2/lig_34.sdf:1
                    3D
 Schrodinger Suite 2020-3.
 40 43  0  0  1  0            999 V2000
   29.8024    0.2824  128.5559 O   0  0  0  0  0  0
   30.0165    0.2702  129.7690 C   0  0  0  0  0  0
   28.9902    0.8312  130.7246 C   0  0  0  0  0  0
   29.3616    1.3803  131.9633 C   0  0  0  0  0  0
   28.3908    1.8692  132.8325 C   0  0  0  0  0  0
   27.0487    1.8271  132.4672 C   0  0  0  0  0  0
   26.6663    1.2987  131.2377 C   0  0  0  0  0  0
   27.6343    0.8035  130.3688 C   0  0  0  0  0  0
   31.1333   -0.2191  130.3443 N   0  0  0  0  0  0
   32.1791   -0.8593  129.7037 C   0  0  0  0  0  0
   33.3932   -0.7337  130.1643 N   0  0  0  0  0  0
   34.2025   -1.4572  129.3811 N   0  0  0  0  0  0
   33.5094   -2.1123  128.3911 C   0  0  0  0  0  0
   33.9426   -2.9454  127.3626 C   0  0  0  0  0  0
   32.9793   -3.4046  126.4564 C   0  0  0  0  0  0
   33.4030   -4.2369  125.3016 C   0  0  0  0  0  0
   34.3626   -5.2451  125.4639 C   0  0  0  0  0  0
   34.7767   -6.0060  124.3765 C   0  0  0  0  0  0
   34.2172   -5.7702  123.1251 C   0  0  0  0  0  0
   34.6025   -6.5298  122.0589 O   0  0  0  0  0  0
   33.2566   -4.7824  122.9480 C   0  0  0  0  0  0
   32.8565   -4.0118  124.0323 C   0  0  0  0  0  0
   31.6292   -3.0722  126.6299 C   0  0  0  0  0  0
   31.1951   -2.2672  127.6813 C   0  0  0  0  0  0
   32.1518   -1.7397  128.5629 C   0  0  0  0  0  0
   30.3971    1.4458  132.2663 H   0  0  0  0  0  0
   28.6812    2.2894  133.7847 H   0  0  0  0  0  0
   26.2989    2.2131  133.1421 H   0  0  0  0  0  0
   25.6229    1.2714  130.9597 H   0  0  0  0  0  0
   27.3207    0.3891  129.4201 H   0  0  0  0  0  0
   31.2925    0.0321  131.3066 H   0  0  0  0  0  0
   35.2015   -1.4865  129.5643 H   0  0  0  0  0  0
   34.9889   -3.1855  127.2424 H   0  0  0  0  0  0
   34.7916   -5.4439  126.4352 H   0  0  0  0  0  0
   35.5198   -6.7809  124.5061 H   0  0  0  0  0  0
   35.3376   -7.1391  122.2685 H   0  0  0  0  0  0
   32.8310   -4.6094  121.9697 H   0  0  0  0  0  0
   32.1230   -3.2334  123.8788 H   0  0  0  0  0  0
   30.8915   -3.4538  125.9384 H   0  0  0  0  0  0
   30.1455   -2.0386  127.7881 H   0  0  0  0  0  0
  1  2  2  0  0  0
  2  3  1  0  0  0
  2  9  1  0  0  0
  3  8  1  0  0  0
  3  4  2  0  0  0
  4  5  1  0  0  0
  4 26  1  0  0  0
  5  6  2  0  0  0
  5 27  1  0  0  0
  6  7  1  0  0  0
  6 28  1  0  0  0
  7  8  2  0  0  0
  7 29  1  0  0  0
  8 30  1  0  0  0
  9 10  1  0  0  0
  9 31  1  0  0  0
 10 25  1  0  0  0
 10 11  2  0  0  0
 11 12  1  0  0  0
 12 13  1  0  0  0
 12 32  1  0  0  0
 13 25  1  0  0  0
 13 14  2  0  0  0
 14 15  1  0  0  0
 14 33  1  0  0  0
 15 16  1  0  0  0
 15 23  2  0  0  0
 16 22  1  0  0  0
 16 17  2  0  0  0
 17 18  1  0  0  0
 17 34  1  0  0  0
 18 19  2  0  0  0
 18 35  1  0  0  0
 19 20  1  0  0  0
 19 21  1  0  0  0
 20 36  1  0  0  0
 21 22  2  0  0  0
 21 37  1  0  0  0
 22 38  1  0  0  0
 23 24  1  0  0  0
 23 39  1  0  0  0
 24 25  2  0  0  0
 24 40  1  0  0  0
M  END
> <s_m_source_file>
/home/yujie/leadopt/data/result/selection/FGFR2/lig_34.sdf

> <i_m_source_file_index>
1

> <i_lp_mmshare_version>
51139

> <i_f3d_flags>
0

> <s_epik_input>
W2NIXTFbY0hdW2NIXVtjSF1bY0hdYzFDKD1PKVtOSF1jKG5bbkhdMiljKGMyMylbY0hdW2NIXWMoW2NIXTMpLWM0W2NIXVtjSF1jKFtPSF0pW2NIXVtjSF00

> <s_epik_cmdline>
J2VwaWtfcHl0aG9uJywgJy1waHQnLCAnMi4wJywgJy1waCcsICc3LjAnLCAnLXRuJywgJzgnLCAnLW1hJywgJzIwMCcsICctaW1hZScsICc8aW5maWxlLm1hZT4nLCAnLW9tYWUnLCAnPG91dGZpbGUubWFlPic=

> <r_lp_tautomer_probability>
0.980392

> <r_epik_Ionization_Penalty>
  0.0010

> <r_epik_Ionization_Penalty_Charging>
  0.0000

> <r_epik_Ionization_Penalty_Neutral>
  0.0010

> <r_epik_State_Penalty>
  0.0090

> <r_epik_Charging_Adjusted_Penalty>
0.00904526

> <i_epik_Tot_Q>
0

> <i_epik_Tot_abs_Q>
0

> <s_lp_Force_Field>
OPLS3e

> <r_lp_Energy>
40.147

> <b_lp_Chiralities_Consistent>
1

> <s_lp_Variant>
/home/yujie/leadopt/data/result/selection/FGFR2/lig_34.sdf:1-1

> <s_i_glide_gridfile>
glide-grid_FGFR2

> <i_i_glide_lignum>
1

> <i_i_glide_rotatable_bonds>
5

> <r_i_docking_score>
-9.28085213551956

> <r_i_glide_ligand_efficiency>
-0.371234085420782

> <r_i_glide_ligand_efficiency_sa>
-1.08549504963491

> <r_i_glide_ligand_efficiency_ln>
-2.19984008081335

> <r_i_glide_gscore>
-9.28989739551956

> <r_i_glide_lipo>
-3.0672771678584

> <r_i_glide_hbond>
-0.646530889990442

> <r_i_glide_metal>
-0

> <r_i_glide_rewards>
-2.43093502868677

> <r_i_glide_evdw>
-39.5870780944824

> <r_i_glide_ecoul>
-11.0061445236206

> <r_i_glide_erotb>
0.485121274283266

> <r_i_glide_esite>
0

> <r_i_glide_emodel>
-78.6510249160309

> <r_i_glide_energy>
-50.593222618103

> <r_i_glide_einternal>
3.76643347740173

> <i_i_glide_confnum>
22

> <i_i_glide_posenum>
173

> <r_i_glide_eff_state_penalty>
0.00904526

$$$$
