/home/yujie/leadopt/data/result/selection/FGFR2/lig_38.sdf:1
                    3D
 Schrodinger Suite 2020-3.
 50 54  0  0  1  0            999 V2000
   34.6025   -6.5298  122.0819 O   0  0  0  0  0  0
   34.2256   -5.7609  123.1443 C   0  0  0  0  0  0
   34.7802   -5.9999  124.3974 C   0  0  0  0  0  0
   34.3703   -5.2350  125.4836 C   0  0  0  0  0  0
   33.2774   -4.7617  122.9624 C   0  0  0  0  0  0
   32.8801   -3.9883  124.0470 C   0  0  0  0  0  0
   33.4184   -4.2199  125.3193 C   0  0  0  0  0  0
   32.9924   -3.3910  126.4767 C   0  0  0  0  0  0
   31.6411   -3.0650  126.6509 C   0  0  0  0  0  0
   31.2024   -2.2655  127.7048 C   0  0  0  0  0  0
   32.1555   -1.7341  128.5884 C   0  0  0  0  0  0
   33.5153   -2.0980  128.4147 C   0  0  0  0  0  0
   34.2024   -1.4286  129.3974 N   0  0  0  0  0  0
   33.3834   -0.6979  130.1627 N   0  0  0  0  0  0
   32.1579   -0.8460  129.7204 C   0  0  0  0  0  0
   31.0148   -0.1205  130.3679 C   0  0  0  0  0  0
   29.8403    0.1499  129.6613 C   0  0  0  0  0  0
   28.7722    0.7899  130.2841 C   0  0  0  0  0  0
   28.8530    1.1818  131.6254 C   0  0  0  0  0  0
   27.7772    1.8249  132.2317 N   0  0  0  0  0  0
   27.1578    2.9934  131.5810 C   0  0  0  0  0  0
   25.7494    3.3491  132.1077 C   0  0  0  0  0  0
   25.7309    3.4874  133.5575 N   0  0  0  0  0  0
   26.2385    2.2836  134.2000 C   0  0  0  0  0  0
   27.6527    1.9123  133.6985 C   0  0  0  0  0  0
   30.0320    0.9111  132.3292 C   0  0  0  0  0  0
   31.0975    0.2701  131.7093 C   0  0  0  0  0  0
   33.9527   -2.9303  127.3855 C   0  0  0  0  0  0
   35.3370   -7.1398  122.2920 H   0  0  0  0  0  0
   35.5150   -6.7818  124.5308 H   0  0  0  0  0  0
   34.7942   -5.4379  126.4562 H   0  0  0  0  0  0
   32.8567   -4.5849  121.9825 H   0  0  0  0  0  0
   32.1533   -3.2041  123.8921 H   0  0  0  0  0  0
   30.9059   -3.4510  125.9589 H   0  0  0  0  0  0
   30.1501   -2.0537  127.8126 H   0  0  0  0  0  0
   35.2018   -1.4424  129.5802 H   0  0  0  0  0  0
   29.7456   -0.1137  128.6209 H   0  0  0  0  0  0
   27.8732    0.9711  129.7147 H   0  0  0  0  0  0
   27.8039    3.8557  131.7561 H   0  0  0  0  0  0
   27.0986    2.8585  130.5016 H   0  0  0  0  0  0
   25.0389    2.5786  131.8040 H   0  0  0  0  0  0
   25.4258    4.2898  131.6616 H   0  0  0  0  0  0
   26.1908    4.3285  133.8783 H   0  0  0  0  0  0
   25.5546    1.4536  134.0144 H   0  0  0  0  0  0
   26.2712    2.4480  135.2776 H   0  0  0  0  0  0
   27.9374    0.9605  134.1485 H   0  0  0  0  0  0
   28.3462    2.6712  134.0632 H   0  0  0  0  0  0
   30.1435    1.2048  133.3618 H   0  0  0  0  0  0
   31.9897    0.0738  132.2847 H   0  0  0  0  0  0
   35.0002   -3.1640  127.2646 H   0  0  0  0  0  0
  1  2  1  0  0  0
  1 29  1  0  0  0
  2  3  1  0  0  0
  2  5  2  0  0  0
  3  4  2  0  0  0
  3 30  1  0  0  0
  4  7  1  0  0  0
  4 31  1  0  0  0
  5  6  1  0  0  0
  5 32  1  0  0  0
  6  7  2  0  0  0
  6 33  1  0  0  0
  7  8  1  0  0  0
  8 28  1  0  0  0
  8  9  2  0  0  0
  9 10  1  0  0  0
  9 34  1  0  0  0
 10 11  2  0  0  0
 10 35  1  0  0  0
 11 15  1  0  0  0
 11 12  1  0  0  0
 12 13  1  0  0  0
 12 28  2  0  0  0
 13 14  1  0  0  0
 13 36  1  0  0  0
 14 15  2  0  0  0
 15 16  1  0  0  0
 16 27  1  0  0  0
 16 17  2  0  0  0
 17 18  1  0  0  0
 17 37  1  0  0  0
 18 19  2  0  0  0
 18 38  1  0  0  0
 19 20  1  0  0  0
 19 26  1  0  0  0
 20 25  1  0  0  0
 20 21  1  0  0  0
 21 22  1  0  0  0
 21 39  1  0  0  0
 21 40  1  0  0  0
 22 23  1  0  0  0
 22 41  1  0  0  0
 22 42  1  0  0  0
 23 24  1  0  0  0
 23 43  1  0  0  0
 24 25  1  0  0  0
 24 44  1  0  0  0
 24 45  1  0  0  0
 25 46  1  0  0  0
 25 47  1  0  0  0
 26 27  2  0  0  0
 26 48  1  0  0  0
 27 49  1  0  0  0
 28 50  1  0  0  0
M  END
> <s_m_source_file>
/home/yujie/leadopt/data/result/selection/FGFR2/lig_38.sdf

> <i_m_source_file_index>
1

> <i_lp_mmshare_version>
51139

> <i_f3d_flags>
0

> <s_epik_input>
W09IXWMxW2NIXVtjSF1jKFtjSF1bY0hdMSktYyhbY0hdW2NIXTIpW2NIXWMoYzIzKVtuSF1uYzMtYzRbY0hdW2NIXWMoW2NIXVtjSF00KU41W0NIMl1bQ0gyXVtOSF1bQ0gyXVtDSDJdNQ==

> <s_epik_cmdline>
J2VwaWtfcHl0aG9uJywgJy1waHQnLCAnMi4wJywgJy1waCcsICc3LjAnLCAnLXRuJywgJzgnLCAnLW1hJywgJzIwMCcsICctaW1hZScsICc8aW5maWxlLm1hZT4nLCAnLW9tYWUnLCAnPG91dGZpbGUubWFlPic=

> <r_lp_tautomer_probability>
0.980392

> <r_epik_Ionization_Penalty>
  2.5163

> <r_epik_Ionization_Penalty_Charging>
  0.0000

> <r_epik_Ionization_Penalty_Neutral>
  2.5163

> <r_epik_State_Penalty>
  2.6889

> <r_epik_Charging_Adjusted_Penalty>
2.68888

> <i_epik_Tot_Q>
0

> <i_epik_Tot_abs_Q>
0

> <s_lp_Force_Field>
OPLS3e

> <r_lp_Energy>
49.3491

> <b_lp_Chiralities_Consistent>
1

> <s_lp_Variant>
/home/yujie/leadopt/data/result/selection/FGFR2/lig_38.sdf:1-3

> <s_i_glide_gridfile>
glide-grid_FGFR2

> <i_i_glide_lignum>
3

> <i_i_glide_rotatable_bonds>
4

> <r_i_docking_score>
-7.09863641810662

> <r_i_glide_ligand_efficiency>
-0.253522729218094

> <r_i_glide_ligand_efficiency_sa>
-0.76984432280839

> <r_i_glide_ligand_efficiency_ln>
-1.63857371032088

> <r_i_glide_gscore>
-9.78751641810662

> <r_i_glide_lipo>
-4.02368579682158

> <r_i_glide_hbond>
-0.657947496400959

> <r_i_glide_metal>
-0

> <r_i_glide_rewards>
-1.83228826388273

> <r_i_glide_evdw>
-41.8629760742188

> <r_i_glide_ecoul>
-9.83778667449951

> <r_i_glide_erotb>
0.295221943884508

> <r_i_glide_esite>
0

> <r_i_glide_emodel>
-83.8704510798629

> <r_i_glide_energy>
-51.7007627487183

> <r_i_glide_einternal>
0.0181555803865194

> <i_i_glide_confnum>
103

> <i_i_glide_posenum>
367

> <r_i_glide_eff_state_penalty>
2.68888

$$$$
