1c
                    3D
 Schrodinger Suite 2021-2.
 52 54  0  0  1  0            999 V2000
   18.0709  -13.1459   21.6919 N   0  0  0  0  0  0
   17.8732  -11.8365   21.0377 C   0  0  2  0  0  0
   17.2469  -13.6495   22.6497 C   0  0  0  0  0  0
   16.2582  -13.0197   23.0429 O   0  0  0  0  0  0
   16.4696  -11.6530   20.4295 C   0  0  0  0  0  0
   15.9457  -12.5702   19.7932 O   0  0  0  0  0  0
   18.9412  -11.7569   19.9354 C   0  0  0  0  0  0
   17.5248  -15.0342   23.2884 C   0  0  2  0  0  0
   15.8791  -10.4688   20.6346 N   0  0  0  0  0  0
   20.0057  -12.7679   20.3263 C   0  0  0  0  0  0
   16.2733  -15.7932   23.3926 N   0  3  0  0  0  0
   18.1583  -14.9237   24.6984 C   0  0  0  0  0  0
   14.5430  -10.1037   20.1821 C   0  0  0  0  0  0
   19.2958  -13.7896   21.2177 C   0  0  0  0  0  0
   19.5841  -14.3958   24.7649 C   0  0  0  0  0  0
   13.4644  -10.4473   21.1909 C   0  0  0  0  0  0
   20.6560  -15.1657   24.2639 C   0  0  0  0  0  0
   12.8785  -11.7305   21.1958 C   0  0  0  0  0  0
   21.9735  -14.6711   24.3263 C   0  0  0  0  0  0
   11.8736  -12.0441   22.1317 C   0  0  0  0  0  0
   22.2290  -13.4027   24.8827 C   0  0  0  0  0  0
   11.4531  -11.0717   23.0567 C   0  0  0  0  0  0
   21.1660  -12.6414   25.4045 C   0  0  0  0  0  0
   12.0453   -9.7939   23.0669 C   0  0  0  0  0  0
   19.8525  -13.1443   25.3538 C   0  0  0  0  0  0
   13.0543   -9.4851   22.1374 C   0  0  0  0  0  0
   18.0601  -11.0657   21.7877 H   0  0  0  0  0  0
   18.5286  -12.0431   18.9650 H   0  0  0  0  0  0
   19.3475  -10.7507   19.8234 H   0  0  0  0  0  0
   18.1827  -15.6232   22.6504 H   0  0  0  0  0  0
   16.3773   -9.7769   21.1720 H   0  0  0  0  0  0
   20.4936  -13.2234   19.4630 H   0  0  0  0  0  0
   20.7810  -12.2619   20.9048 H   0  0  0  0  0  0
   15.6195  -15.1939   23.8829 H   0  0  0  0  0  0
   15.9033  -15.9372   22.4632 H   0  0  0  0  0  0
   16.3958  -16.6705   23.8731 H   0  0  0  0  0  0
   17.5291  -14.3023   25.3398 H   0  0  0  0  0  0
   18.1790  -15.9046   25.1759 H   0  0  0  0  0  0
   14.5238   -9.0318   19.9814 H   0  0  0  0  0  0
   14.3161  -10.5870   19.2292 H   0  0  0  0  0  0
   19.9602  -14.0892   22.0228 H   0  0  0  0  0  0
   19.0398  -14.6728   20.6303 H   0  0  0  0  0  0
   20.4888  -16.1434   23.8356 H   0  0  0  0  0  0
   13.1990  -12.4707   20.4752 H   0  0  0  0  0  0
   22.7948  -15.2621   23.9450 H   0  0  0  0  0  0
   11.4130  -13.0211   22.1284 H   0  0  0  0  0  0
   23.2406  -13.0230   24.9272 H   0  0  0  0  0  0
   21.3624  -11.6756   25.8494 H   0  0  0  0  0  0
   11.4916   -8.4945   24.3396 Br  0  0  0  0  0  0
   19.0529  -12.5433   25.7648 H   0  0  0  0  0  0
   13.5007   -8.5016   22.1508 H   0  0  0  0  0  0
   10.6748  -11.3022   23.7695 H   0  0  0  0  0  0
  1  2  1  0  0  0
  1 14  1  0  0  0
  1  3  1  0  0  0
  2  5  1  0  0  0
  2  7  1  0  0  0
  2 27  1  0  0  0
  3  8  1  0  0  0
  3  4  2  0  0  0
  5  6  2  0  0  0
  5  9  1  0  0  0
  7 10  1  0  0  0
  7 28  1  0  0  0
  7 29  1  0  0  0
  8 11  1  0  0  0
  8 12  1  0  0  0
  8 30  1  0  0  0
  9 13  1  0  0  0
  9 31  1  0  0  0
 10 14  1  0  0  0
 10 32  1  0  0  0
 10 33  1  0  0  0
 11 34  1  0  0  0
 11 35  1  0  0  0
 11 36  1  0  0  0
 12 15  1  0  0  0
 12 37  1  0  0  0
 12 38  1  0  0  0
 13 16  1  0  0  0
 13 39  1  0  0  0
 13 40  1  0  0  0
 14 41  1  0  0  0
 14 42  1  0  0  0
 15 17  1  0  0  0
 15 25  2  0  0  0
 16 18  1  0  0  0
 16 26  2  0  0  0
 17 19  2  0  0  0
 17 43  1  0  0  0
 18 20  2  0  0  0
 18 44  1  0  0  0
 19 21  1  0  0  0
 19 45  1  0  0  0
 20 22  1  0  0  0
 20 46  1  0  0  0
 21 23  2  0  0  0
 21 47  1  0  0  0
 22 24  2  0  0  0
 22 52  1  0  0  0
 23 25  1  0  0  0
 23 48  1  0  0  0
 24 26  1  0  0  0
 24 49  1  0  0  0
 25 50  1  0  0  0
 26 51  1  0  0  0
M  CHG  1  11   1
M  END
> <s_m_entry_id>
617

> <s_m_entry_name>
Thrombin_1c.1

> <s_m_Source_Path>
C:\Users\yujiethinkpad\Desktop\05A\Thrombin

> <s_m_Source_File>
Thrombin_1c.sdf

> <i_m_Source_File_Index>
1

> <i_f3d_flags>
0

> <s_m_job_name>
align_ligands_2

> <r_user_dG.exp>
-8.56

> <r_m_Molecular_weight>
431.3613

> <r_f3d_energy>
0

> <r_f3d_relative_energy>
0

> <r_phase_Shape_Sim>
0.966272411350194

> <s_m_subgroup_title>
align_ligands_2

> <s_m_subgroupid>
align_ligands_2

> <b_m_subgroup_collapsed>
0

$$$$
