ejm_42
                    3D
 Schrodinger Suite 2021-2.
 35 36  0  0  1  0            999 V2000
   -1.3061   21.8586  -27.2920 C   0  0  0  0  0  0
   -0.9269   21.9770  -28.6306 C   0  0  0  0  0  0
   -1.8648   22.3559  -29.5915 C   0  0  0  0  0  0
   -3.1822   22.6167  -29.2155 C   0  0  0  0  0  0
   -3.5628   22.4990  -27.8790 C   0  0  0  0  0  0
   -2.6256   22.1201  -26.9174 C   0  0  0  0  0  0
   -5.1930   22.8219  -27.4148 Cl  0  0  0  0  0  0
   -4.1902   23.0241  -30.2490 C   0  0  0  0  0  0
   -4.9003   22.2539  -30.8887 O   0  0  0  0  0  0
   -4.2346   24.3477  -30.4036 N   0  0  0  0  0  0
   -5.1074   25.0644  -31.3289 C   0  0  0  0  0  0
   -5.7163   24.4336  -32.4595 C   0  0  0  0  0  0
   -6.5353   25.1374  -33.2838 C   0  0  0  0  0  0
   -6.8096   26.4965  -33.0995 N   0  0  0  0  0  0
   -6.2196   27.1613  -32.0262 C   0  0  0  0  0  0
   -5.4213   26.4520  -31.1744 C   0  0  0  0  0  0
   -6.5129   28.5789  -31.8362 N   0  0  0  0  0  0
   -6.0547   29.3378  -30.8403 C   0  0  0  0  0  0
   -5.3185   28.9065  -29.9578 O   0  0  0  0  0  0
   -6.5480   30.7506  -30.9430 C   0  0  0  0  0  0
   -1.3949   22.5019  -31.2453 Cl  0  0  0  0  0  0
   -7.1834   30.8505  -31.8231 H   0  0  0  0  0  0
   -0.5796   21.5650  -26.5471 H   0  0  0  0  0  0
    0.0935   21.7754  -28.9246 H   0  0  0  0  0  0
   -2.9231   22.0296  -25.8822 H   0  0  0  0  0  0
   -3.6699   25.0163  -29.8995 H   0  0  0  0  0  0
   -5.5259   23.3899  -32.6624 H   0  0  0  0  0  0
   -7.0063   24.6484  -34.1239 H   0  0  0  0  0  0
   -5.0177   27.0069  -30.3404 H   0  0  0  0  0  0
   -7.1190   28.8919  -32.5811 H   0  0  0  0  0  0
   -5.3778   31.6813  -31.0630 C   0  0  0  0  0  0
   -7.1215   31.0010  -30.0506 H   0  0  0  0  0  0
   -5.7363   32.7080  -31.1376 H   0  0  0  0  0  0
   -4.7425   31.5814  -30.1829 H   0  0  0  0  0  0
   -4.8044   31.4309  -31.9554 H   0  0  0  0  0  0
  1  2  1  0  0  0
  1  6  2  0  0  0
  1 23  1  0  0  0
  2  3  2  0  0  0
  2 24  1  0  0  0
  3  4  1  0  0  0
  3 21  1  0  0  0
  4  5  2  0  0  0
  4  8  1  0  0  0
  5  6  1  0  0  0
  5  7  1  0  0  0
  6 25  1  0  0  0
  8  9  2  0  0  0
  8 10  1  0  0  0
 10 11  1  0  0  0
 10 26  1  0  0  0
 11 12  1  0  0  0
 11 16  2  0  0  0
 12 13  2  0  0  0
 12 27  1  0  0  0
 13 14  1  0  0  0
 13 28  1  0  0  0
 14 15  2  0  0  0
 15 16  1  0  0  0
 15 17  1  0  0  0
 16 29  1  0  0  0
 17 18  1  0  0  0
 17 30  1  0  0  0
 18 19  2  0  0  0
 18 20  1  0  0  0
 20 22  1  0  0  0
 20 31  1  0  0  0
 20 32  1  0  0  0
 31 33  1  0  0  0
 31 34  1  0  0  0
 31 35  1  0  0  0
M  END
> <s_m_entry_id>
742

> <s_m_entry_name>
Tyk2_ejm_42.1

> <r_user_dG.exp>
-9.78

> <r_m_Molecular_weight>
338.19576

> <s_m_Source_Path>
C:\Users\yujiethinkpad\Desktop\05A\Tyk2

> <s_m_Source_File>
Tyk2_ejm_42.sdf

> <i_m_Source_File_Index>
1

> <s_m_job_name>
align_ligands_0220

> <i_phase_Input_Structure_Number>
9

> <i_phase_Structure_Number>
9

> <r_phase_Similarity_to_Reference>
0.624440072141775

> <i_phase_Reference_Structure>
16

> <s_phase_Alignment_Method>
snapped core

> <s_phase_Alignment_Reason>


> <s_phase_Core_SMARTS>
a1aaaaa1

> <s_f3d_frozen_atoms>
11 12 13 14 15 16 27 28 29

> <s_fepmapper_entryid>
16

> <i_fepmapper_bias>
0

> <i_fepmapper_affinity>
1

> <r_fepmapper_exp_dG>
-9.78

> <i_fepmapper_unit>
1

> <s_m_subgroup_title>
align_ligands_0220

> <s_m_subgroupid>
align_ligands_0220

> <b_m_subgroup_collapsed>
0

$$$$
