ejm_49
                    3D
 Schrodinger Suite 2021-2.
 39 41  0  0  1  0            999 V2000
   -2.1338   19.5622  -30.3395 C   0  0  0  0  0  0
   -1.6463   20.6054  -29.5057 C   0  0  0  0  0  0
   -2.3390   21.8281  -29.4247 C   0  0  0  0  0  0
   -3.5554   21.9752  -30.1546 C   0  0  0  0  0  0
   -4.0666   20.9238  -30.9695 C   0  0  0  0  0  0
   -3.3166   19.7278  -31.1048 C   0  0  0  0  0  0
   -5.6410   21.0048  -31.7107 Cl  0  0  0  0  0  0
   -4.3268   23.2566  -30.0406 C   0  0  0  0  0  0
   -4.1944   24.2313  -30.7749 O   0  0  0  0  0  0
   -5.1954   23.2241  -29.0296 N   0  0  0  0  0  0
   -6.0960   24.3089  -28.6504 C   0  0  0  0  0  0
   -7.2275   24.0534  -27.8759 C   0  0  0  0  0  0
   -8.0729   25.1049  -27.5261 C   0  0  0  0  0  0
   -7.8350   26.3831  -27.9145 N   0  0  0  0  0  0
   -6.7295   26.6179  -28.6685 C   0  0  0  0  0  0
   -5.8398   25.6168  -29.0560 C   0  0  0  0  0  0
   -6.4941   28.0004  -29.0745 N   0  0  0  0  0  0
   -5.7213   28.3884  -30.0894 C   0  0  0  0  0  0
   -5.1129   27.5977  -30.8045 O   0  0  0  0  0  0
   -1.7044   23.0603  -28.3859 Cl  0  0  0  0  0  0
   -1.6015   18.6237  -30.3979 H   0  0  0  0  0  0
   -0.7421   20.4605  -28.9326 H   0  0  0  0  0  0
   -3.6361   18.9477  -31.7805 H   0  0  0  0  0  0
   -5.3366   22.4451  -28.4024 H   0  0  0  0  0  0
   -7.4487   23.0468  -27.5483 H   0  0  0  0  0  0
   -8.9563   24.9250  -26.9250 H   0  0  0  0  0  0
   -4.9720   25.8516  -29.6572 H   0  0  0  0  0  0
   -7.0111   28.6154  -28.4625 H   0  0  0  0  0  0
   -5.6545   32.6478  -30.5008 C   0  0  0  0  0  0
   -5.2898   31.8404  -31.5717 C   0  0  0  0  0  0
   -5.3115   30.4572  -31.4381 C   0  0  0  0  0  0
   -5.6979   29.8813  -30.2336 C   0  0  0  0  0  0
   -6.0626   30.6887  -29.1628 C   0  0  0  0  0  0
   -6.0409   32.0719  -29.2964 C   0  0  0  0  0  0
   -5.6376   33.7247  -30.6048 H   0  0  0  0  0  0
   -4.9890   32.2887  -32.5094 H   0  0  0  0  0  0
   -5.0275   29.8286  -32.2718 H   0  0  0  0  0  0
   -6.3634   30.2404  -28.2250 H   0  0  0  0  0  0
   -6.3248   32.7005  -28.4626 H   0  0  0  0  0  0
  1  2  1  0  0  0
  1  6  2  0  0  0
  1 21  1  0  0  0
  2  3  2  0  0  0
  2 22  1  0  0  0
  3  4  1  0  0  0
  3 20  1  0  0  0
  4  5  2  0  0  0
  4  8  1  0  0  0
  5  6  1  0  0  0
  5  7  1  0  0  0
  6 23  1  0  0  0
  8  9  2  0  0  0
  8 10  1  0  0  0
 10 11  1  0  0  0
 10 24  1  0  0  0
 11 12  1  0  0  0
 11 16  2  0  0  0
 12 13  2  0  0  0
 12 25  1  0  0  0
 13 14  1  0  0  0
 13 26  1  0  0  0
 14 15  2  0  0  0
 15 16  1  0  0  0
 15 17  1  0  0  0
 16 27  1  0  0  0
 17 18  1  0  0  0
 17 28  1  0  0  0
 18 19  2  0  0  0
 18 32  1  0  0  0
 29 30  2  0  0  0
 29 34  1  0  0  0
 29 35  1  0  0  0
 30 31  1  0  0  0
 30 36  1  0  0  0
 31 32  2  0  0  0
 31 37  1  0  0  0
 32 33  1  0  0  0
 33 34  2  0  0  0
 33 38  1  0  0  0
 34 39  1  0  0  0
M  END
> <s_m_entry_id>
748

> <s_m_entry_name>
Tyk2_ejm_49.1

> <r_user_dG.exp>
-7.75

> <r_m_Molecular_weight>
386.24036

> <s_m_Source_Path>
C:\Users\yujiethinkpad\Desktop\05A\Tyk2

> <s_m_Source_File>
Tyk2_ejm_49.sdf

> <i_m_Source_File_Index>
1

> <s_m_job_name>
align_ligands_0220

> <i_phase_Input_Structure_Number>
15

> <i_phase_Structure_Number>
15

> <r_phase_Similarity_to_Reference>
0.555347821171177

> <i_phase_Reference_Structure>
16

> <s_phase_Alignment_Method>
snapped core

> <s_phase_Alignment_Reason>


> <s_phase_Core_SMARTS>
a1aaaaa1

> <s_f3d_frozen_atoms>
4 5 6 1 2 3 7 23 21 22 20

> <s_fepmapper_entryid>
9

> <i_fepmapper_bias>
0

> <i_fepmapper_affinity>
1

> <r_fepmapper_exp_dG>
-7.75

> <i_fepmapper_unit>
1

> <s_m_subgroup_title>
align_ligands_0220

> <s_m_subgroupid>
align_ligands_0220

> <b_m_subgroup_collapsed>
0

$$$$
