/home/yujie/leadopt/data/result/selection/BCL6/lig_12a.sdf:1
                    3D
 Schrodinger Suite 2021-2.
 50 54  0  0  1  0            999 V2000
  -21.8400    8.1600   19.8211 C   0  0  0  0  0  0
  -22.3295    9.5231   19.5807 N   0  0  0  0  0  0
  -21.7908   10.5437   20.2940 C   0  0  0  0  0  0
  -20.8073   10.3849   21.0135 O   0  0  0  0  0  0
  -22.4299   11.8498   20.1748 C   0  0  0  0  0  0
  -23.2806   12.1261   19.1550 C   0  0  0  0  0  0
  -23.7618   13.3922   18.8765 N   0  0  0  0  0  0
  -22.9680   14.5910   19.0156 C   0  0  2  0  0  0
  -22.7743   14.9415   20.4731 C   0  0  0  0  0  0
  -21.6974   14.0154   21.0074 C   0  0  0  0  0  0
  -22.1683   12.7043   21.2301 O   0  0  0  0  0  0
  -23.5198   15.7351   18.2213 C   0  0  0  0  0  0
  -22.5884   16.8025   17.7091 C   0  0  0  0  0  0
  -23.2204   15.8275   16.7508 C   0  0  0  0  0  0
  -23.8038   11.0220   18.3193 C   0  0  0  0  0  0
  -24.7704   11.2035   17.3032 C   0  0  0  0  0  0
  -25.2220   10.1237   16.5240 C   0  0  0  0  0  0
  -24.7864    8.8283   16.8329 C   0  0  0  0  0  0
  -23.8507    8.6262   17.8513 C   0  0  0  0  0  0
  -23.3388    9.7166   18.5899 C   0  0  0  0  0  0
  -26.0872   10.3609   15.4474 N   0  0  0  0  0  0
  -26.0085    9.8588   14.1358 C   0  0  0  0  0  0
  -24.8761    9.1373   13.7117 C   0  0  0  0  0  0
  -24.8057    8.6803   12.3931 C   0  0  0  0  0  0
  -25.7665    8.9047   11.4867 N   0  0  0  0  0  0
  -26.8522    9.6007   11.8682 C   0  0  0  0  0  0
  -27.0243   10.1032   13.1791 C   0  0  0  0  0  0
  -28.2289   10.8482   13.5071 C   0  0  0  0  0  0
  -29.1888   11.4384   13.7563 N   0  0  0  0  0  0
  -28.0457    9.8446   10.6435 Cl  0  0  0  0  0  0
  -21.9968   14.3683   18.5678 H   0  0  0  0  0  0
  -21.1180    8.0626   20.6313 H   0  0  0  0  0  0
  -22.6673    7.5051   20.0922 H   0  0  0  0  0  0
  -21.3594    7.7695   18.9252 H   0  0  0  0  0  0
  -24.4179   13.4577   18.1140 H   0  0  0  0  0  0
  -22.4200   15.9685   20.5597 H   0  0  0  0  0  0
  -23.7016   14.8738   21.0464 H   0  0  0  0  0  0
  -20.8092   13.9909   20.3674 H   0  0  0  0  0  0
  -21.3548   14.3963   21.9733 H   0  0  0  0  0  0
  -24.5080   16.0697   18.5333 H   0  0  0  0  0  0
  -22.9577   17.8263   17.7029 H   0  0  0  0  0  0
  -21.5249   16.6885   17.9099 H   0  0  0  0  0  0
  -22.5778   15.0691   16.3056 H   0  0  0  0  0  0
  -24.0080   16.2058   16.0996 H   0  0  0  0  0  0
  -25.1389   12.1903   17.0676 H   0  0  0  0  0  0
  -25.1536    7.9828   16.2706 H   0  0  0  0  0  0
  -23.5246    7.6108   18.0205 H   0  0  0  0  0  0
  -26.7707   11.0878   15.5959 H   0  0  0  0  0  0
  -24.0415    8.9445   14.3678 H   0  0  0  0  0  0
  -23.9415    8.1296   12.0547 H   0  0  0  0  0  0
  1  2  1  0  0  0
  1 32  1  0  0  0
  1 33  1  0  0  0
  1 34  1  0  0  0
  2 20  1  0  0  0
  2  3  1  0  0  0
  3  4  2  0  0  0
  3  5  1  0  0  0
  5 11  1  0  0  0
  5  6  2  0  0  0
  6  7  1  0  0  0
  6 15  1  0  0  0
  7  8  1  0  0  0
  7 35  1  0  0  0
  8 31  1  0  0  0
  8  9  1  0  0  0
  8 12  1  0  0  0
  9 10  1  0  0  0
  9 36  1  0  0  0
  9 37  1  0  0  0
 10 11  1  0  0  0
 10 38  1  0  0  0
 10 39  1  0  0  0
 12 14  1  0  0  0
 12 13  1  0  0  0
 12 40  1  0  0  0
 13 14  1  0  0  0
 13 41  1  0  0  0
 13 42  1  0  0  0
 14 43  1  0  0  0
 14 44  1  0  0  0
 15 20  2  0  0  0
 15 16  1  0  0  0
 16 17  2  0  0  0
 16 45  1  0  0  0
 17 18  1  0  0  0
 17 21  1  0  0  0
 18 19  2  0  0  0
 18 46  1  0  0  0
 19 20  1  0  0  0
 19 47  1  0  0  0
 21 22  1  0  0  0
 21 48  1  0  0  0
 22 27  1  0  0  0
 22 23  2  0  0  0
 23 24  1  0  0  0
 23 49  1  0  0  0
 24 25  2  0  0  0
 24 50  1  0  0  0
 25 26  1  0  0  0
 26 27  2  0  0  0
 26 30  1  0  0  0
 27 28  1  0  0  0
 28 29  3  0  0  0
M  END
> <s_m_entry_id>
393

> <s_m_entry_name>
BCL6_lig_12a.1

> <s_m_Source_Path>
C:\Users\yujiethinkpad\Desktop\selection\BCL6\original

> <s_m_Source_File>
BCL6_lig_12a.sdf

> <i_m_Source_File_Index>
1

> <i_lp_mmshare_version>
51139

> <i_f3d_flags>
0

> <s_epik_input>
TzFbQ0gyXVtDSDJdW0NASF0oW0NIXTJbQ0gyXVtDSDJdMilbTkhdYyhjMTMpYzRjKG4oW0NIM10pYzM9TylbY0hdW2NIXWMoW2NIXTQpW05IXWM1W2NIXVtjSF1uYyhDbCljNUMjTg==

> <s_epik_cmdline>
J2VwaWtfcHl0aG9uJywgJy1waHQnLCAnMi4wJywgJy1waCcsICc3LjAnLCAnLXRuJywgJzgnLCAnLW1hJywgJzIwMCcsICctaW1hZScsICc8aW5maWxlLm1hZT4nLCAnLW9tYWUnLCAnPG91dGZpbGUubWFlPic=

> <r_epik_Ionization_Penalty>
  0.2778

> <r_epik_Ionization_Penalty_Charging>
  0.0000

> <r_epik_Ionization_Penalty_Neutral>
  0.2778

> <r_epik_State_Penalty>
  0.2702

> <r_epik_Charging_Adjusted_Penalty>
0.27018

> <i_epik_Tot_Q>
0

> <i_epik_Tot_abs_Q>
0

> <s_lp_Force_Field>
OPLS3e

> <r_lp_Energy>
62.0669

> <b_lp_Chiralities_Consistent>
1

> <s_lp_Variant>
/home/yujie/leadopt/data/result/selection/BCL6/lig_12a.sdf:1-1

> <s_i_glide_gridfile>
glide-grid_BCL6

> <i_i_glide_lignum>
14

> <i_i_glide_rotatable_bonds>
3

> <r_i_docking_score>
-5.71580518339857

> <r_i_glide_ligand_efficiency>
-0.190526839446619

> <r_i_glide_ligand_efficiency_sa>
-0.592011188114004

> <r_i_glide_ligand_efficiency_ln>
-1.29869321635376

> <r_i_glide_gscore>
-5.98600518339857

> <r_i_glide_lipo>
-2.23973256607683

> <r_i_glide_hbond>
-0.470811195767296

> <r_i_glide_metal>
0

> <r_i_glide_rewards>
-0.992126974912751

> <r_i_glide_evdw>
-32.5922164916992

> <r_i_glide_ecoul>
-6.58371067047119

> <r_i_glide_erotb>
0.33383297851395

> <r_i_glide_esite>
0

> <r_i_glide_emodel>
-46.8975344491674

> <r_i_glide_energy>
-39.1759271621704

> <r_i_glide_einternal>
2.30804181098938

> <i_i_glide_confnum>
4

> <i_i_glide_posenum>
270

> <r_i_glide_eff_state_penalty>
0.2702

> <s_m_job_name>
glide-dock_SP_BCL6_ligand1

> <r_glide_shape_similarity>
0.952989220619202

> <s_m_subgroup_title>
glide-dock_SP_BCL6_ligand1_lib1

> <s_m_subgroupid>
glide-dock_SP_BCL6_ligand1_lib1

> <b_m_subgroup_collapsed>
0

$$$$
