/home/yujie/leadopt/data/result/selection/BCL6/lig_1.sdf:1
                    3D
 Schrodinger Suite 2021-2.
 50 54  0  0  1  0            999 V2000
  -21.8480    8.1306   19.8411 C   0  0  0  0  0  0
  -22.3284    9.5016   19.5830 N   0  0  0  0  0  0
  -21.7142   10.5358   20.2177 C   0  0  0  0  0  0
  -20.6910   10.3708   20.8783 O   0  0  0  0  0  0
  -22.2918   11.8667   20.0405 C   0  0  0  0  0  0
  -23.2837   12.1108   19.1447 C   0  0  0  0  0  0
  -23.7497   13.3927   18.8692 N   0  0  0  0  0  0
  -22.9840   14.6107   19.0983 C   0  0  1  0  0  0
  -23.4872   15.7556   18.2336 C   0  0  0  0  0  0
  -22.5216   16.7858   17.6945 C   0  0  0  0  0  0
  -23.1872   15.8069   16.7542 C   0  0  0  0  0  0
  -22.9137   14.9814   20.5918 C   0  0  0  0  0  0
  -21.9312   15.8661   20.7738 F   0  0  0  0  0  0
  -24.0580   15.5398   20.9964 F   0  0  0  0  0  0
  -22.6616   13.7492   21.4680 C   0  0  0  0  0  0
  -21.7534   12.8367   20.8605 O   0  0  0  0  0  0
  -23.8513   10.9938   18.3503 C   0  0  0  0  0  0
  -24.8120   11.1788   17.3297 C   0  0  0  0  0  0
  -25.2404   10.1012   16.5317 C   0  0  0  0  0  0
  -24.7932    8.8001   16.8321 C   0  0  0  0  0  0
  -23.8517    8.5979   17.8504 C   0  0  0  0  0  0
  -23.3538    9.6924   18.5999 C   0  0  0  0  0  0
  -26.0999   10.3510   15.4504 N   0  0  0  0  0  0
  -26.0131    9.8561   14.1332 C   0  0  0  0  0  0
  -24.8785    9.1330   13.7119 C   0  0  0  0  0  0
  -24.8036    8.6739   12.3907 C   0  0  0  0  0  0
  -25.7608    8.9025   11.4765 N   0  0  0  0  0  0
  -26.8513    9.5967   11.8541 C   0  0  0  0  0  0
  -27.0284   10.1017   13.1689 C   0  0  0  0  0  0
  -28.2402   10.8591   13.4622 C   0  0  0  0  0  0
  -29.2062   11.4620   13.6651 N   0  0  0  0  0  0
  -28.0480    9.8436   10.6248 Cl  0  0  0  0  0  0
  -21.9687   14.3863   18.7676 H   0  0  0  0  0  0
  -21.1782    8.0355   20.6961 H   0  0  0  0  0  0
  -22.6864    7.4703   20.0654 H   0  0  0  0  0  0
  -21.3191    7.7442   18.9696 H   0  0  0  0  0  0
  -24.4389   13.4878   18.1364 H   0  0  0  0  0  0
  -24.4753   16.1192   18.5135 H   0  0  0  0  0  0
  -22.8580   17.8209   17.6669 H   0  0  0  0  0  0
  -21.4611   16.6456   17.8967 H   0  0  0  0  0  0
  -22.5728   15.0117   16.3347 H   0  0  0  0  0  0
  -23.9688   16.1861   16.0988 H   0  0  0  0  0  0
  -22.2643   14.0548   22.4362 H   0  0  0  0  0  0
  -23.6029   13.2390   21.6867 H   0  0  0  0  0  0
  -25.1831   12.1667   17.1018 H   0  0  0  0  0  0
  -25.1471    7.9551   16.2596 H   0  0  0  0  0  0
  -23.5076    7.5883   18.0099 H   0  0  0  0  0  0
  -26.7526   11.1096   15.5912 H   0  0  0  0  0  0
  -24.0484    8.9309   14.3717 H   0  0  0  0  0  0
  -23.9428    8.1125   12.0546 H   0  0  0  0  0  0
  1  2  1  0  0  0
  1 34  1  0  0  0
  1 35  1  0  0  0
  1 36  1  0  0  0
  2 22  1  0  0  0
  2  3  1  0  0  0
  3  4  2  0  0  0
  3  5  1  0  0  0
  5 16  1  0  0  0
  5  6  2  0  0  0
  6  7  1  0  0  0
  6 17  1  0  0  0
  7  8  1  0  0  0
  7 37  1  0  0  0
  8 33  1  0  0  0
  8  9  1  0  0  0
  8 12  1  0  0  0
  9 11  1  0  0  0
  9 10  1  0  0  0
  9 38  1  0  0  0
 10 11  1  0  0  0
 10 39  1  0  0  0
 10 40  1  0  0  0
 11 41  1  0  0  0
 11 42  1  0  0  0
 12 13  1  0  0  0
 12 14  1  0  0  0
 12 15  1  0  0  0
 15 16  1  0  0  0
 15 43  1  0  0  0
 15 44  1  0  0  0
 17 22  2  0  0  0
 17 18  1  0  0  0
 18 19  2  0  0  0
 18 45  1  0  0  0
 19 20  1  0  0  0
 19 23  1  0  0  0
 20 21  2  0  0  0
 20 46  1  0  0  0
 21 22  1  0  0  0
 21 47  1  0  0  0
 23 24  1  0  0  0
 23 48  1  0  0  0
 24 29  1  0  0  0
 24 25  2  0  0  0
 25 26  1  0  0  0
 25 49  1  0  0  0
 26 27  2  0  0  0
 26 50  1  0  0  0
 27 28  1  0  0  0
 28 29  2  0  0  0
 28 32  1  0  0  0
 29 30  1  0  0  0
 30 31  3  0  0  0
M  END
> <s_m_entry_id>
380

> <s_m_entry_name>
BCL6_lig_1.1

> <s_m_Source_Path>
C:\Users\yujiethinkpad\Desktop\selection\BCL6\original

> <s_m_Source_File>
BCL6_lig_1.sdf

> <i_m_Source_File_Index>
1

> <i_lp_mmshare_version>
51139

> <i_f3d_flags>
0

> <s_epik_input>
W0NIMl0xW0NIMl1bQ0hdMVtDQEBIXShDKEYpKEYpW0NIMl1PMilbTkhdYyhjMjMpYzRjKG4oW0NIM10pYzM9TylbY0hdW2NIXWMoW2NIXTQpW05IXWM1W2NIXVtjSF1uYyhDbCljNUMjTg==

> <s_epik_cmdline>
J2VwaWtfcHl0aG9uJywgJy1waHQnLCAnMi4wJywgJy1waCcsICc3LjAnLCAnLXRuJywgJzgnLCAnLW1hJywgJzIwMCcsICctaW1hZScsICc8aW5maWxlLm1hZT4nLCAnLW9tYWUnLCAnPG91dGZpbGUubWFlPic=

> <r_epik_Ionization_Penalty>
  0.0016

> <r_epik_Ionization_Penalty_Charging>
  0.0000

> <r_epik_Ionization_Penalty_Neutral>
  0.0016

> <r_epik_State_Penalty>
  0.0010

> <r_epik_Charging_Adjusted_Penalty>
0.00100151

> <i_epik_Tot_Q>
0

> <i_epik_Tot_abs_Q>
0

> <s_lp_Force_Field>
OPLS3e

> <r_lp_Energy>
63.4608

> <b_lp_Chiralities_Consistent>
1

> <s_lp_Variant>
/home/yujie/leadopt/data/result/selection/BCL6/lig_1.sdf:1-1

> <s_i_glide_gridfile>
glide-grid_BCL6

> <i_i_glide_lignum>
21

> <i_i_glide_rotatable_bonds>
3

> <r_i_docking_score>
-6.51994987464131

> <r_i_glide_ligand_efficiency>
-0.203748433582541

> <r_i_glide_ligand_efficiency_sa>
-0.646860954864313

> <r_i_glide_ligand_efficiency_ln>
-1.45999450405335

> <r_i_glide_gscore>
-6.52094987464131

> <r_i_glide_lipo>
-2.38959040595842

> <r_i_glide_hbond>
-0.470398646850651

> <r_i_glide_metal>
0

> <r_i_glide_rewards>
-1.15517261511076

> <r_i_glide_evdw>
-36.6716499328613

> <r_i_glide_ecoul>
-6.39976596832275

> <r_i_glide_erotb>
0.287759185170002

> <r_i_glide_esite>
0

> <r_i_glide_emodel>
-57.5485195260813

> <r_i_glide_energy>
-43.0714159011841

> <r_i_glide_einternal>
1.5820140838623

> <i_i_glide_confnum>
1

> <i_i_glide_posenum>
208

> <r_i_glide_eff_state_penalty>
0.001

> <s_m_job_name>
glide-dock_SP_BCL6_ligand1

> <r_glide_shape_similarity>
0.993459641933441

> <s_m_subgroup_title>
glide-dock_SP_BCL6_ligand1_lib1

> <s_m_subgroupid>
glide-dock_SP_BCL6_ligand1_lib1

> <b_m_subgroup_collapsed>
0

$$$$
