/home/yujie/leadopt/data/result/selection/BCL6/lig_10.sdf:1
                    3D
 Schrodinger Suite 2021-2.
 44 47  0  0  1  0            999 V2000
  -21.8743    8.1358   19.8409 C   0  0  0  0  0  0
  -22.3383    9.5043   19.5851 N   0  0  0  0  0  0
  -21.7377   10.5194   20.2513 C   0  0  0  0  0  0
  -20.7991   10.3342   21.0191 O   0  0  0  0  0  0
  -22.2253   11.8618   19.9950 C   0  0  0  0  0  0
  -23.2276   12.1162   19.1203 C   0  0  0  0  0  0
  -23.4535   13.5318   18.7144 N   0  3  0  0  0  0
  -23.7004   14.5548   19.7485 C   0  0  0  0  0  0
  -22.5178   14.9295   20.5959 C   0  0  0  0  0  0
  -22.1648   13.7366   21.4523 C   0  0  0  0  0  0
  -21.4888   12.8309   20.6146 O   0  0  0  0  0  0
  -23.8412   11.0045   18.3544 C   0  0  0  0  0  0
  -24.8044   11.1906   17.3359 C   0  0  0  0  0  0
  -25.2368   10.1154   16.5338 C   0  0  0  0  0  0
  -24.7894    8.8218   16.8316 C   0  0  0  0  0  0
  -23.8559    8.6192   17.8522 C   0  0  0  0  0  0
  -23.3539    9.7030   18.6011 C   0  0  0  0  0  0
  -26.0881   10.3584   15.4465 N   0  0  0  0  0  0
  -26.0089    9.8546   14.1331 C   0  0  0  0  0  0
  -24.8755    9.1372   13.7107 C   0  0  0  0  0  0
  -24.8028    8.6825   12.3927 C   0  0  0  0  0  0
  -25.7649    8.9075   11.4879 N   0  0  0  0  0  0
  -26.8534    9.6000   11.8662 C   0  0  0  0  0  0
  -27.0251   10.1010   13.1767 C   0  0  0  0  0  0
  -28.2295   10.8460   13.5037 C   0  0  0  0  0  0
  -29.1891   11.4376   13.7508 N   0  0  0  0  0  0
  -28.0460    9.8464   10.6401 Cl  0  0  0  0  0  0
  -21.1671    8.0243   20.6624 H   0  0  0  0  0  0
  -21.3980    7.7208   18.9523 H   0  0  0  0  0  0
  -22.7237    7.5052   20.1070 H   0  0  0  0  0  0
  -22.6638   13.8574   18.1836 H   0  0  0  0  0  0
  -24.0942   15.4479   19.2629 H   0  0  0  0  0  0
  -24.4597   14.1828   20.4372 H   0  0  0  0  0  0
  -21.6706   15.2573   19.9932 H   0  0  0  0  0  0
  -22.7944   15.7648   21.2421 H   0  0  0  0  0  0
  -21.4719   14.0410   22.2344 H   0  0  0  0  0  0
  -23.0245   13.2882   21.9517 H   0  0  0  0  0  0
  -25.1724   12.1806   17.1091 H   0  0  0  0  0  0
  -25.1373    7.9745   16.2553 H   0  0  0  0  0  0
  -23.5194    7.6068   18.0125 H   0  0  0  0  0  0
  -26.7613   11.0958   15.5858 H   0  0  0  0  0  0
  -24.0363    8.9462   14.3619 H   0  0  0  0  0  0
  -23.9397    8.1318   12.0488 H   0  0  0  0  0  0
  -24.2541   13.5535   18.1008 H   0  0  0  0  0  0
  1  2  1  0  0  0
  1 28  1  0  0  0
  1 29  1  0  0  0
  1 30  1  0  0  0
  2 17  1  0  0  0
  2  3  1  0  0  0
  3  4  2  0  0  0
  3  5  1  0  0  0
  5 11  1  0  0  0
  5  6  2  0  0  0
  6  7  1  0  0  0
  6 12  1  0  0  0
  7  8  1  0  0  0
  7 31  1  0  0  0
  7 44  1  0  0  0
  8  9  1  0  0  0
  8 32  1  0  0  0
  8 33  1  0  0  0
  9 10  1  0  0  0
  9 34  1  0  0  0
  9 35  1  0  0  0
 10 11  1  0  0  0
 10 36  1  0  0  0
 10 37  1  0  0  0
 12 17  2  0  0  0
 12 13  1  0  0  0
 13 14  2  0  0  0
 13 38  1  0  0  0
 14 15  1  0  0  0
 14 18  1  0  0  0
 15 16  2  0  0  0
 15 39  1  0  0  0
 16 17  1  0  0  0
 16 40  1  0  0  0
 18 19  1  0  0  0
 18 41  1  0  0  0
 19 24  1  0  0  0
 19 20  2  0  0  0
 20 21  1  0  0  0
 20 42  1  0  0  0
 21 22  2  0  0  0
 21 43  1  0  0  0
 22 23  1  0  0  0
 23 24  2  0  0  0
 23 27  1  0  0  0
 24 25  1  0  0  0
 25 26  3  0  0  0
M  CHG  1   7   1
M  END
> <s_m_entry_id>
402

> <s_m_entry_name>
BCL6_lig_10.1

> <s_m_Source_Path>
C:\Users\yujiethinkpad\Desktop\selection\BCL6\original

> <s_m_Source_File>
BCL6_lig_10.sdf

> <i_m_Source_File_Index>
1

> <i_lp_mmshare_version>
51139

> <i_f3d_flags>
0

> <s_epik_input>
TzFbQ0gyXVtDSDJdW0NIMl1bTkhdYyhjMTIpYzNjKG4oW0NIM10pYzI9TylbY0hdW2NIXWMoW2NIXTMpW05IXWM0W2NIXVtjSF1uYyhDbCljNEMjTg==

> <s_epik_cmdline>
J2VwaWtfcHl0aG9uJywgJy1waHQnLCAnMi4wJywgJy1waCcsICc3LjAnLCAnLXRuJywgJzgnLCAnLW1hJywgJzIwMCcsICctaW1hZScsICc8aW5maWxlLm1hZT4nLCAnLW9tYWUnLCAnPG91dGZpbGUubWFlPic=

> <r_epik_Ionization_Penalty>
  0.7962

> <r_epik_Ionization_Penalty_Charging>
  0.7962

> <r_epik_Ionization_Penalty_Neutral>
  0.0001

> <r_epik_State_Penalty>
  0.8270

> <r_epik_Charging_Adjusted_Penalty>
1.62318

> <i_epik_Tot_Q>
1

> <i_epik_Tot_abs_Q>
1

> <s_lp_Force_Field>
OPLS3e

> <r_lp_Energy>
60.398

> <b_lp_Chiralities_Consistent>
1

> <s_lp_Variant>
/home/yujie/leadopt/data/result/selection/BCL6/lig_10.sdf:1-2

> <s_i_glide_gridfile>
glide-grid_BCL6

> <i_i_glide_lignum>
8

> <i_i_glide_rotatable_bonds>
2

> <r_i_docking_score>
-5.33868366245505

> <r_i_glide_ligand_efficiency>
-0.197729024535372

> <r_i_glide_ligand_efficiency_sa>
-0.593187072954434

> <r_i_glide_ligand_efficiency_ln>
-1.24275754154061

> <r_i_glide_gscore>
-6.16568366245505

> <r_i_glide_lipo>
-2.28303096962529

> <r_i_glide_hbond>
-0.357089897586866

> <r_i_glide_metal>
0

> <r_i_glide_rewards>
-1.25823999843234

> <r_i_glide_evdw>
-29.5307006835938

> <r_i_glide_ecoul>
-7.01668548583984

> <r_i_glide_erotb>
0.265099884209186

> <r_i_glide_esite>
-0.00338482396407422

> <r_i_glide_emodel>
-38.6425710951644

> <r_i_glide_energy>
-36.5473861694336

> <r_i_glide_einternal>
1.76133275032043

> <i_i_glide_confnum>
1

> <i_i_glide_posenum>
323

> <r_i_glide_eff_state_penalty>
0.827

> <s_m_job_name>
glide-dock_SP_BCL6_ligand1

> <r_glide_shape_similarity>
0.873820126056671

> <s_m_subgroup_title>
glide-dock_SP_BCL6_ligand1_lib1

> <s_m_subgroupid>
glide-dock_SP_BCL6_ligand1_lib1

> <b_m_subgroup_collapsed>
0

$$$$
