/home/yujie/leadopt/data/result/selection/BCL6/lig_8.sdf:1
                    3D
 Schrodinger Suite 2021-2.
 46 49  0  0  1  0            999 V2000
  -23.4836   15.7647   18.2077 C   0  0  0  0  0  0
  -22.9813   14.6126   19.0799 C   0  0  1  0  0  0
  -22.9772   14.9879   20.5643 C   0  0  0  0  0  0
  -22.7041   13.8818   21.4039 O   0  0  0  0  0  0
  -21.7184   12.9793   20.9311 C   0  0  0  0  0  0
  -22.3035   11.8791   20.0427 C   0  0  0  0  0  0
  -23.2743   12.1113   19.1318 C   0  0  0  0  0  0
  -23.7288   13.3885   18.8407 N   0  0  0  0  0  0
  -23.8470   11.0013   18.3455 C   0  0  0  0  0  0
  -24.8080   11.1866   17.3256 C   0  0  0  0  0  0
  -25.2349   10.1122   16.5288 C   0  0  0  0  0  0
  -24.7874    8.8208   16.8301 C   0  0  0  0  0  0
  -23.8542    8.6181   17.8510 C   0  0  0  0  0  0
  -23.3551    9.7051   18.5986 C   0  0  0  0  0  0
  -22.3368    9.5191   19.5796 N   0  0  0  0  0  0
  -21.8552    8.1531   19.8336 C   0  0  0  0  0  0
  -21.7274   10.5477   20.2179 C   0  0  0  0  0  0
  -20.7044   10.3684   20.8721 O   0  0  0  0  0  0
  -26.0849   10.3572   15.4461 N   0  0  0  0  0  0
  -26.0085    9.8561   14.1327 C   0  0  0  0  0  0
  -24.8768    9.1381   13.7095 C   0  0  0  0  0  0
  -24.8050    8.6838   12.3909 C   0  0  0  0  0  0
  -25.7661    8.9081   11.4852 N   0  0  0  0  0  0
  -26.8543    9.6001   11.8667 C   0  0  0  0  0  0
  -27.0254   10.1026   13.1768 C   0  0  0  0  0  0
  -28.2290   10.8461   13.5015 C   0  0  0  0  0  0
  -29.1897   11.4361   13.7468 N   0  0  0  0  0  0
  -28.0484    9.8473   10.6424 Cl  0  0  0  0  0  0
  -21.9551   14.4247   18.7575 H   0  0  0  0  0  0
  -22.8705   16.6574   18.3485 H   0  0  0  0  0  0
  -24.5155   16.0286   18.4439 H   0  0  0  0  0  0
  -23.4410   15.5005   17.1500 H   0  0  0  0  0  0
  -22.2353   15.7647   20.7489 H   0  0  0  0  0  0
  -23.9442   15.3935   20.8619 H   0  0  0  0  0  0
  -20.8912   13.4877   20.4345 H   0  0  0  0  0  0
  -21.2748   12.5549   21.8296 H   0  0  0  0  0  0
  -24.4031   13.4745   18.0953 H   0  0  0  0  0  0
  -25.1771   12.1745   17.0966 H   0  0  0  0  0  0
  -25.1367    7.9767   16.2554 H   0  0  0  0  0  0
  -23.5154    7.6072   18.0108 H   0  0  0  0  0  0
  -21.1824    8.0502   20.6862 H   0  0  0  0  0  0
  -21.3340    7.7603   18.9603 H   0  0  0  0  0  0
  -22.6958    7.4966   20.0609 H   0  0  0  0  0  0
  -26.7522   11.0992   15.5898 H   0  0  0  0  0  0
  -24.0415    8.9443   14.3635 H   0  0  0  0  0  0
  -23.9423    8.1332   12.0432 H   0  0  0  0  0  0
  1  2  1  0  0  0
  1 30  1  0  0  0
  1 31  1  0  0  0
  1 32  1  0  0  0
  2 29  1  0  0  0
  2  8  1  0  0  0
  2  3  1  0  0  0
  3  4  1  0  0  0
  3 33  1  0  0  0
  3 34  1  0  0  0
  4  5  1  0  0  0
  5  6  1  0  0  0
  5 35  1  0  0  0
  5 36  1  0  0  0
  6 17  1  0  0  0
  6  7  2  0  0  0
  7  8  1  0  0  0
  7  9  1  0  0  0
  8 37  1  0  0  0
  9 14  2  0  0  0
  9 10  1  0  0  0
 10 11  2  0  0  0
 10 38  1  0  0  0
 11 12  1  0  0  0
 11 19  1  0  0  0
 12 13  2  0  0  0
 12 39  1  0  0  0
 13 14  1  0  0  0
 13 40  1  0  0  0
 14 15  1  0  0  0
 15 16  1  0  0  0
 15 17  1  0  0  0
 16 41  1  0  0  0
 16 42  1  0  0  0
 16 43  1  0  0  0
 17 18  2  0  0  0
 19 20  1  0  0  0
 19 44  1  0  0  0
 20 25  1  0  0  0
 20 21  2  0  0  0
 21 22  1  0  0  0
 21 45  1  0  0  0
 22 23  2  0  0  0
 22 46  1  0  0  0
 23 24  1  0  0  0
 24 25  2  0  0  0
 24 28  1  0  0  0
 25 26  1  0  0  0
 26 27  3  0  0  0
M  END
> <s_m_entry_id>
387

> <s_m_entry_name>
BCL6_lig_8.1

> <s_m_Source_Path>
C:\Users\yujiethinkpad\Desktop\selection\BCL6\original

> <s_m_Source_File>
BCL6_lig_8.sdf

> <i_m_Source_File_Index>
1

> <i_lp_mmshare_version>
51139

> <i_f3d_flags>
0

> <s_epik_input>
W0NIMl0xT1tDSDJdW0NASF0oW0NIM10pW05IXWMoYzEyKWMzYyhuKFtDSDNdKWMyPU8pW2NIXVtjSF1jKFtjSF0zKVtOSF1jNFtjSF1bY0hdbmMoQ2wpYzRDI04=

> <s_epik_cmdline>
J2VwaWtfcHl0aG9uJywgJy1waHQnLCAnMi4wJywgJy1waCcsICc3LjAnLCAnLXRuJywgJzgnLCAnLW1hJywgJzIwMCcsICctaW1hZScsICc8aW5maWxlLm1hZT4nLCAnLW9tYWUnLCAnPG91dGZpbGUubWFlPic=

> <r_epik_Ionization_Penalty>
  0.0031

> <r_epik_Ionization_Penalty_Charging>
  0.0000

> <r_epik_Ionization_Penalty_Neutral>
  0.0031

> <r_epik_State_Penalty>
  0.0021

> <r_epik_Charging_Adjusted_Penalty>
0.00209822

> <i_epik_Tot_Q>
0

> <i_epik_Tot_abs_Q>
0

> <s_lp_Force_Field>
OPLS3e

> <r_lp_Energy>
55.6449

> <b_lp_Chiralities_Consistent>
1

> <s_lp_Variant>
/home/yujie/leadopt/data/result/selection/BCL6/lig_8.sdf:1-1

> <s_i_glide_gridfile>
glide-grid_BCL6

> <i_i_glide_lignum>
4

> <i_i_glide_rotatable_bonds>
2

> <r_i_docking_score>
-6.08205592358764

> <r_i_glide_ligand_efficiency>
-0.217216282985273

> <r_i_glide_ligand_efficiency_sa>
-0.659596568692266

> <r_i_glide_ligand_efficiency_ln>
-1.4039170840856

> <r_i_glide_gscore>
-6.08415592358764

> <r_i_glide_lipo>
-2.18137049319742

> <r_i_glide_hbond>
-0.458474301114463

> <r_i_glide_metal>
0

> <r_i_glide_rewards>
-1.1714910740145

> <r_i_glide_evdw>
-34.3577461242676

> <r_i_glide_ecoul>
-5.36388301849365

> <r_i_glide_erotb>
0.249649703726169

> <r_i_glide_esite>
0

> <r_i_glide_emodel>
-44.5698269832205

> <r_i_glide_energy>
-39.7216291427612

> <r_i_glide_einternal>
1.2546466588974

> <i_i_glide_confnum>
2

> <i_i_glide_posenum>
355

> <r_i_glide_eff_state_penalty>
0.0021

> <s_m_job_name>
glide-dock_SP_BCL6_ligand1

> <r_glide_shape_similarity>
0.908468127250671

> <s_m_subgroup_title>
glide-dock_SP_BCL6_ligand1_lib1

> <s_m_subgroupid>
glide-dock_SP_BCL6_ligand1_lib1

> <b_m_subgroup_collapsed>
0

$$$$
