/home/yujie/leadopt/data/result/selection/BCL6/lig_4.sdf:1
                    3D
 Schrodinger Suite 2021-2.
 44 46  0  0  1  0            999 V2000
  -23.4773   15.7041   17.9559 C   0  0  0  0  0  0
  -23.0537   14.6850   19.0055 C   0  0  0  0  0  0
  -23.7177   13.4007   18.8306 N   0  0  0  0  0  0
  -23.2558   12.1245   19.1368 C   0  0  0  0  0  0
  -22.3129   11.8826   20.0779 C   0  0  0  0  0  0
  -21.7791   12.9661   21.0144 C   0  0  0  0  0  0
  -21.7432   10.5467   20.2563 C   0  0  0  0  0  0
  -20.7688   10.3594   20.9818 O   0  0  0  0  0  0
  -22.3288    9.5229   19.5825 N   0  0  0  0  0  0
  -21.8414    8.1571   19.8232 C   0  0  0  0  0  0
  -23.3489    9.7112   18.6007 C   0  0  0  0  0  0
  -23.8539    8.6218   17.8553 C   0  0  0  0  0  0
  -24.7883    8.8226   16.8354 C   0  0  0  0  0  0
  -25.2328   10.1150   16.5317 C   0  0  0  0  0  0
  -24.7955   11.1919   17.3248 C   0  0  0  0  0  0
  -23.8301   11.0107   18.3432 C   0  0  0  0  0  0
  -26.0910   10.3540   15.4495 N   0  0  0  0  0  0
  -26.0096    9.8546   14.1351 C   0  0  0  0  0  0
  -24.8769    9.1363   13.7123 C   0  0  0  0  0  0
  -24.8036    8.6829   12.3928 C   0  0  0  0  0  0
  -25.7653    8.9067   11.4875 N   0  0  0  0  0  0
  -26.8528    9.6000   11.8673 C   0  0  0  0  0  0
  -27.0250   10.1011   13.1779 C   0  0  0  0  0  0
  -28.2301   10.8449   13.5044 C   0  0  0  0  0  0
  -29.1911   11.4355   13.7514 N   0  0  0  0  0  0
  -28.0468    9.8462   10.6421 Cl  0  0  0  0  0  0
  -22.9278   16.6363   18.0786 H   0  0  0  0  0  0
  -23.2897   15.3353   16.9465 H   0  0  0  0  0  0
  -24.5380   15.9342   18.0400 H   0  0  0  0  0  0
  -23.2639   15.0840   19.9961 H   0  0  0  0  0  0
  -21.9783   14.5544   18.9038 H   0  0  0  0  0  0
  -24.4119   13.4394   18.0999 H   0  0  0  0  0  0
  -22.5902   13.5865   21.3934 H   0  0  0  0  0  0
  -21.2773   12.5883   21.9027 H   0  0  0  0  0  0
  -21.0395   13.5857   20.5113 H   0  0  0  0  0  0
  -21.1272    8.0495   20.6394 H   0  0  0  0  0  0
  -22.6734    7.5030   20.0860 H   0  0  0  0  0  0
  -21.3583    7.7647   18.9281 H   0  0  0  0  0  0
  -23.5219    7.6094   18.0225 H   0  0  0  0  0  0
  -25.1437    7.9753   16.2669 H   0  0  0  0  0  0
  -25.1638   12.1795   17.0913 H   0  0  0  0  0  0
  -26.7539   11.0987   15.5906 H   0  0  0  0  0  0
  -24.0430    8.9440   14.3685 H   0  0  0  0  0  0
  -23.9384    8.1348   12.0495 H   0  0  0  0  0  0
  1  2  1  0  0  0
  1 27  1  0  0  0
  1 28  1  0  0  0
  1 29  1  0  0  0
  2  3  1  0  0  0
  2 30  1  0  0  0
  2 31  1  0  0  0
  3  4  1  0  0  0
  3 32  1  0  0  0
  4 16  1  0  0  0
  4  5  2  0  0  0
  5  6  1  0  0  0
  5  7  1  0  0  0
  6 33  1  0  0  0
  6 34  1  0  0  0
  6 35  1  0  0  0
  7  8  2  0  0  0
  7  9  1  0  0  0
  9 10  1  0  0  0
  9 11  1  0  0  0
 10 36  1  0  0  0
 10 37  1  0  0  0
 10 38  1  0  0  0
 11 16  2  0  0  0
 11 12  1  0  0  0
 12 13  2  0  0  0
 12 39  1  0  0  0
 13 14  1  0  0  0
 13 40  1  0  0  0
 14 15  2  0  0  0
 14 17  1  0  0  0
 15 16  1  0  0  0
 15 41  1  0  0  0
 17 18  1  0  0  0
 17 42  1  0  0  0
 18 23  1  0  0  0
 18 19  2  0  0  0
 19 20  1  0  0  0
 19 43  1  0  0  0
 20 21  2  0  0  0
 20 44  1  0  0  0
 21 22  1  0  0  0
 22 23  2  0  0  0
 22 26  1  0  0  0
 23 24  1  0  0  0
 24 25  3  0  0  0
M  END
> <s_m_entry_id>
394

> <s_m_entry_name>
BCL6_lig_4.1

> <s_m_Source_Path>
C:\Users\yujiethinkpad\Desktop\selection\BCL6\original

> <s_m_Source_File>
BCL6_lig_4.sdf

> <i_m_Source_File_Index>
1

> <i_lp_mmshare_version>
51139

> <i_f3d_flags>
0

> <s_epik_input>
W0NIM11uMWMoPU8pYyhbQ0gzXSljKFtOSF1bQ0gyXVtDSDNdKWMoYzEyKVtjSF1jKFtjSF1bY0hdMilbTkhdYzNbY0hdW2NIXW5jKENsKWMzQyNO

> <s_epik_cmdline>
J2VwaWtfcHl0aG9uJywgJy1waHQnLCAnMi4wJywgJy1waCcsICc3LjAnLCAnLXRuJywgJzgnLCAnLW1hJywgJzIwMCcsICctaW1hZScsICc8aW5maWxlLm1hZT4nLCAnLW9tYWUnLCAnPG91dGZpbGUubWFlPic=

> <r_epik_Ionization_Penalty>
  0.0076

> <r_epik_Ionization_Penalty_Charging>
  0.0000

> <r_epik_Ionization_Penalty_Neutral>
  0.0076

> <r_epik_State_Penalty>
  0.0056

> <r_epik_Charging_Adjusted_Penalty>
0.00564378

> <i_epik_Tot_Q>
0

> <i_epik_Tot_abs_Q>
0

> <s_lp_Force_Field>
OPLS3e

> <r_lp_Energy>
51.7118

> <b_lp_Chiralities_Consistent>
1

> <s_lp_Variant>
/home/yujie/leadopt/data/result/selection/BCL6/lig_4.sdf:1-1

> <s_i_glide_gridfile>
glide-grid_BCL6

> <i_i_glide_lignum>
24

> <i_i_glide_rotatable_bonds>
4

> <r_i_docking_score>
-5.67801255810429

> <r_i_glide_ligand_efficiency>
-0.218385098388627

> <r_i_glide_ligand_efficiency_sa>
-0.646964994672438

> <r_i_glide_ligand_efficiency_ln>
-1.33346261819197

> <r_i_glide_gscore>
-5.68361255810429

> <r_i_glide_lipo>
-1.98263594985829

> <r_i_glide_hbond>
-0.349414923225692

> <r_i_glide_metal>
0

> <r_i_glide_rewards>
-1.36057670467078

> <r_i_glide_evdw>
-30.8578243255615

> <r_i_glide_ecoul>
-5.83474779129028

> <r_i_glide_erotb>
0.427118404622085

> <r_i_glide_esite>
0

> <r_i_glide_emodel>
-32.2045538490715

> <r_i_glide_energy>
-36.6925721168518

> <r_i_glide_einternal>
4.36517238616943

> <i_i_glide_confnum>
4

> <i_i_glide_posenum>
26

> <r_i_glide_eff_state_penalty>
0.0056

> <s_m_job_name>
glide-dock_SP_BCL6_ligand1

> <r_glide_shape_similarity>
0.848474085330963

> <s_m_subgroup_title>
glide-dock_SP_BCL6_ligand1_lib1

> <s_m_subgroupid>
glide-dock_SP_BCL6_ligand1_lib1

> <b_m_subgroup_collapsed>
0

$$$$
