6b
                    3D
 Schrodinger Suite 2021-2.
 55 57  0  0  1  0            999 V2000
   18.0591  -13.0467   21.6695 N   0  0  0  0  0  0
   17.8492  -11.7197   21.0521 C   0  0  2  0  0  0
   17.2309  -13.6063   22.5909 C   0  0  0  0  0  0
   16.2595  -13.0028   23.0448 O   0  0  0  0  0  0
   16.4393  -11.5354   20.4509 C   0  0  0  0  0  0
   15.9026  -12.4655   19.8420 O   0  0  0  0  0  0
   18.9070  -11.6088   19.9423 C   0  0  0  0  0  0
   17.4654  -15.0472   23.0927 C   0  0  2  0  0  0
   15.8547  -10.3441   20.6448 N   0  0  0  0  0  0
   19.9930  -12.5971   20.3188 C   0  0  0  0  0  0
   16.1775  -15.7633   23.0447 N   0  3  0  0  0  0
   18.0183  -15.0960   24.5390 C   0  0  0  0  0  0
   14.4977   -9.9948   20.2409 C   0  0  0  0  0  0
   19.2943  -13.6557   21.1693 C   0  0  0  0  0  0
   19.4107  -14.5215   24.7439 C   0  0  0  0  0  0
   13.4421  -10.4547   21.2318 C   0  0  0  0  0  0
   19.5786  -13.3026   25.4321 C   0  0  0  0  0  0
   12.9634   -9.5705   22.2215 C   0  0  0  0  0  0
   20.8598  -12.7388   25.5896 C   0  0  0  0  0  0
   11.9644   -9.9893   23.1212 C   0  0  0  0  0  0
   21.9862  -13.4081   25.0733 C   0  0  0  0  0  0
   11.4544  -11.2990   23.0448 C   0  0  0  0  0  0
   21.8304  -14.6469   24.4220 C   0  0  0  0  0  0
   11.9372  -12.1898   22.0693 C   0  0  0  0  0  0
   20.5464  -15.2075   24.2637 C   0  0  0  0  0  0
   12.9260  -11.7670   21.1617 C   0  0  0  0  0  0
   18.0330  -10.9664   21.8204 H   0  0  0  0  0  0
   18.4934  -11.8980   18.9731 H   0  0  0  0  0  0
   19.2907  -10.5932   19.8344 H   0  0  0  0  0  0
   18.1471  -15.5842   22.4342 H   0  0  0  0  0  0
   16.3665   -9.6427   21.1567 H   0  0  0  0  0  0
   20.5047  -13.0167   19.4510 H   0  0  0  0  0  0
   20.7456  -12.0869   20.9230 H   0  0  0  0  0  0
   15.8568  -15.7926   22.0790 H   0  0  0  0  0  0
   16.2673  -16.7007   23.4054 H   0  0  0  0  0  0
   15.4955  -15.2355   23.5819 H   0  0  0  0  0  0
   17.3324  -14.5827   25.2168 H   0  0  0  0  0  0
   18.0550  -16.1288   24.8892 H   0  0  0  0  0  0
   14.4364   -8.9126   20.1203 H   0  0  0  0  0  0
   14.2787  -10.4169   19.2576 H   0  0  0  0  0  0
   19.9552  -13.9834   21.9697 H   0  0  0  0  0  0
   19.0498  -14.5174   20.5462 H   0  0  0  0  0  0
   18.7261  -12.7703   25.8313 H   0  0  0  0  0  0
   20.9814  -11.7973   26.1071 H   0  0  0  0  0  0
   11.5908   -9.3073   23.8717 H   0  0  0  0  0  0
   22.9719  -12.9805   25.1955 H   0  0  0  0  0  0
   22.7010  -15.1673   24.0473 H   0  0  0  0  0  0
   11.3528  -13.8115   22.0070 Cl  0  0  0  0  0  0
   20.4526  -16.1605   23.7630 H   0  0  0  0  0  0
   13.2923  -12.4512   20.4100 H   0  0  0  0  0  0
   10.6929  -11.6229   23.7393 H   0  0  0  0  0  0
   13.4973   -8.1716   22.3112 C   0  0  0  0  0  0
   13.0081   -7.6480   23.1325 H   0  0  0  0  0  0
   14.5721   -8.2037   22.4897 H   0  0  0  0  0  0
   13.2997   -7.6467   21.3766 H   0  0  0  0  0  0
  1  2  1  0  0  0
  1 14  1  0  0  0
  1  3  1  0  0  0
  2  5  1  0  0  0
  2  7  1  0  0  0
  2 27  1  0  0  0
  3  8  1  0  0  0
  3  4  2  0  0  0
  5  6  2  0  0  0
  5  9  1  0  0  0
  7 10  1  0  0  0
  7 28  1  0  0  0
  7 29  1  0  0  0
  8 11  1  0  0  0
  8 12  1  0  0  0
  8 30  1  0  0  0
  9 13  1  0  0  0
  9 31  1  0  0  0
 10 14  1  0  0  0
 10 32  1  0  0  0
 10 33  1  0  0  0
 11 34  1  0  0  0
 11 35  1  0  0  0
 11 36  1  0  0  0
 12 15  1  0  0  0
 12 37  1  0  0  0
 12 38  1  0  0  0
 13 16  1  0  0  0
 13 39  1  0  0  0
 13 40  1  0  0  0
 14 41  1  0  0  0
 14 42  1  0  0  0
 15 17  1  0  0  0
 15 25  2  0  0  0
 16 18  1  0  0  0
 16 26  2  0  0  0
 17 19  2  0  0  0
 17 43  1  0  0  0
 18 20  2  0  0  0
 18 52  1  0  0  0
 19 21  1  0  0  0
 19 44  1  0  0  0
 20 22  1  0  0  0
 20 45  1  0  0  0
 21 23  2  0  0  0
 21 46  1  0  0  0
 22 24  2  0  0  0
 22 51  1  0  0  0
 23 25  1  0  0  0
 23 47  1  0  0  0
 24 26  1  0  0  0
 24 48  1  0  0  0
 25 49  1  0  0  0
 26 50  1  0  0  0
 52 53  1  0  0  0
 52 54  1  0  0  0
 52 55  1  0  0  0
M  CHG  1  11   1
M  END
> <s_m_entry_id>
624

> <s_m_entry_name>
Thrombin_6b.1

> <s_m_Source_Path>
C:\Users\yujiethinkpad\Desktop\05A\Thrombin

> <s_m_Source_File>
Thrombin_6b.sdf

> <i_m_Source_File_Index>
1

> <i_f3d_flags>
0

> <s_m_job_name>
align_ligands_3

> <r_user_dG.exp>
-8.89

> <r_m_Molecular_weight>
400.93239

> <r_f3d_energy>
8.17646

> <r_f3d_relative_energy>
7.00000000009027e-05

> <r_phase_Shape_Sim>
0.938460641586736

> <s_m_subgroup_title>
align_ligands_3

> <s_m_subgroupid>
align_ligands_3

> <b_m_subgroup_collapsed>
0

$$$$
