29
                    3D
 Schrodinger Suite 2021-2.
 41 43  0  0  1  0            999 V2000
    3.0246  -47.2604    6.9944 O   0  0  0  0  0  0
    2.9960  -48.5042    6.8710 C   0  0  0  0  0  0
    4.0304  -49.1832    7.0447 O   0  5  0  0  0  0
    1.7173  -49.1783    6.5232 C   0  0  0  0  0  0
   -0.1074  -50.8954    6.4429 C   0  0  0  0  0  0
   -1.0177  -51.9619    6.5205 C   0  0  0  0  0  0
   -2.3600  -51.7826    6.1407 C   0  0  0  0  0  0
   -2.7782  -50.5305    5.6661 C   0  0  0  0  0  0
   -1.8605  -49.4770    5.5713 C   0  0  0  0  0  0
   -0.5101  -49.6375    5.9492 C   0  0  0  0  0  0
    0.5664  -48.6906    5.9585 C   0  0  0  0  0  0
    0.3137  -47.3112    5.5435 C   0  0  0  0  0  0
   -0.2396  -46.7215    6.7936 C   0  0  0  0  0  0
   -0.6961  -45.3559    6.6884 C   0  0  0  0  0  0
   -1.9385  -45.1775    6.0286 O   0  0  0  0  0  0
   -3.0375  -45.0386    6.8285 C   0  0  0  0  0  0
   -3.2095  -45.7791    7.9933 C   0  0  0  0  0  0
   -4.4626  -45.8627    8.6014 C   0  0  0  0  0  0
   -5.5067  -45.0317    8.1774 C   0  0  0  0  0  0
   -5.3575  -44.2723    7.0078 C   0  0  0  0  0  0
   -4.1066  -44.2675    6.3653 C   0  0  0  0  0  0
   -0.6992  -52.9178    6.9080 H   0  0  0  0  0  0
   -3.0609  -52.6014    6.2166 H   0  0  0  0  0  0
   -3.8009  -50.3831    5.3482 H   0  0  0  0  0  0
   -2.2161  -48.5216    5.2249 H   0  0  0  0  0  0
   -0.3711  -47.3122    4.6963 H   0  0  0  0  0  0
    1.2292  -46.8582    5.1627 H   0  0  0  0  0  0
    0.6216  -46.7502    7.4182 H   0  0  0  0  0  0
   -0.9656  -47.3664    7.2906 H   0  0  0  0  0  0
    0.0148  -44.7912    6.0826 H   0  0  0  0  0  0
   -0.7231  -44.9086    7.6813 H   0  0  0  0  0  0
   -3.9634  -43.6659    5.4815 H   0  0  0  0  0  0
    1.5846  -50.8595    6.9155 N   0  0  0  0  0  0
    2.3642  -51.3563    7.3362 H   0  0  0  0  0  0
   -6.1954  -43.7243    6.6014 H   0  0  0  0  0  0
   -6.4157  -44.9558    8.7567 H   0  0  0  0  0  0
   -4.6376  -46.6167    9.3551 H   0  0  0  0  0  0
   -2.0803  -46.2600    9.9663 F   0  0  0  0  0  0
   -2.0712  -46.5576    8.6657 C   0  0  0  0  0  0
   -2.2858  -47.8730    8.5619 F   0  0  0  0  0  0
   -0.8589  -46.3110    8.1623 F   0  0  0  0  0  0
  1  2  2  0  0  0
  2  3  1  0  0  0
  2  4  1  0  0  0
  4 11  2  0  0  0
  4 33  1  0  0  0
  5  6  1  0  0  0
  5 10  2  0  0  0
  5 33  1  0  0  0
  6  7  2  0  0  0
  6 22  1  0  0  0
  7  8  1  0  0  0
  7 23  1  0  0  0
  8  9  2  0  0  0
  8 24  1  0  0  0
  9 10  1  0  0  0
  9 25  1  0  0  0
 10 11  1  0  0  0
 11 12  1  0  0  0
 12 26  1  0  0  0
 12 27  1  0  0  0
 12 13  1  0  0  0
 13 14  1  0  0  0
 13 28  1  0  0  0
 13 29  1  0  0  0
 14 15  1  0  0  0
 14 30  1  0  0  0
 14 31  1  0  0  0
 15 16  1  0  0  0
 16 17  1  0  0  0
 16 21  2  0  0  0
 17 18  2  0  0  0
 17 39  1  0  0  0
 18 19  1  0  0  0
 18 37  1  0  0  0
 19 20  2  0  0  0
 19 36  1  0  0  0
 20 21  1  0  0  0
 20 35  1  0  0  0
 21 32  1  0  0  0
 33 34  1  0  0  0
 38 39  1  0  0  0
 39 40  1  0  0  0
 39 41  1  0  0  0
M  CHG  1   3  -1
M  END
> <s_m_entry_id>
346

> <s_m_entry_name>
MCL1_29.1

> <r_m_Molecular_weight>
362.3315

> <s_m_Source_Path>
C:\Users\yujiethinkpad\Desktop\05A\MCL1\original

> <s_m_Source_File>
MCL1_29.sdf

> <r_user_dG.exp>
-6.93940556519089

> <s_fepmapper_entryid>
22

> <i_fepmapper_bias>
0

> <i_fepmapper_affinity>
1

> <r_fepmapper_exp_dG>
-6.93940556519

> <i_fepmapper_unit>
1

> <i_m_Source_File_Index>
1

> <s_m_job_name>
align_ligands_3

> <s_i_glide_gridfile>
glide-grid_MCL1

> <i_i_glide_lignum>
13

> <i_i_glide_rotatable_bonds>
7

> <r_i_docking_score>
-8.23579504705984

> <r_i_glide_ligand_efficiency>
-0.31676134796384

> <r_i_glide_ligand_efficiency_sa>
-0.938404246947158

> <r_i_glide_ligand_efficiency_ln>
-1.93414944295429

> <r_i_glide_gscore>
-8.23579504705984

> <r_i_glide_lipo>
-4.26636987721526

> <r_i_glide_hbond>
-0.2

> <r_i_glide_metal>
0

> <r_i_glide_rewards>
-2.94481022138391

> <r_i_glide_evdw>
-24.5997638702393

> <r_i_glide_ecoul>
-2.08814597129822

> <r_i_glide_erotb>
0.731300272525245

> <r_i_glide_esite>
-0.0127051317792299

> <r_i_glide_emodel>
-34.2616444971787

> <r_i_glide_energy>
-26.6879098415375

> <r_i_glide_einternal>
4.92607259750366

> <i_i_glide_confnum>
22

> <i_i_glide_posenum>
23

> <r_i_glide_eff_state_penalty>
0

> <r_glide_shape_similarity>
0.895186007022858

> <i_phase_Input_Structure_Number>
27

> <i_phase_Structure_Number>
27

> <r_phase_Similarity_to_Reference>
0.870908899169194

> <i_phase_Reference_Structure>
1

> <s_phase_Alignment_Method>
snapped core

> <s_phase_Alignment_Reason>


> <s_phase_Core_SMARTS>
a1aaaaa1AAAAa(aa2)a(a23)aaaa3

> <s_f3d_frozen_atoms>
21 20 19 18 17 16 15 14 13 12 11 4 33 10 5 9 8 7 6 32 35 36 37 30 31 28 29 26 27 34 25 24 23 22

> <s_m_subgroup_title>
align_ligands_3->glide-dock_SP_redock_05676_lib1

> <s_m_subgroupid>
align_ligands_3->glide-dock_SP_redock_05676_lib11

> <b_m_subgroup_collapsed>
0

$$$$
