31
                    3D
 Schrodinger Suite 2021-2.
 41 43  0  0  1  0            999 V2000
    3.0246  -47.2604    6.9944 O   0  0  0  0  0  0
    2.9960  -48.5042    6.8710 C   0  0  0  0  0  0
    4.0304  -49.1832    7.0447 O   0  5  0  0  0  0
    1.7173  -49.1783    6.5232 C   0  0  0  0  0  0
   -0.1074  -50.8954    6.4429 C   0  0  0  0  0  0
   -1.0177  -51.9619    6.5205 C   0  0  0  0  0  0
   -2.3600  -51.7826    6.1407 C   0  0  0  0  0  0
   -2.7782  -50.5305    5.6661 C   0  0  0  0  0  0
   -1.8605  -49.4770    5.5713 C   0  0  0  0  0  0
   -0.5101  -49.6375    5.9492 C   0  0  0  0  0  0
    0.5664  -48.6906    5.9585 C   0  0  0  0  0  0
    0.3137  -47.3112    5.5435 C   0  0  0  0  0  0
   -0.2396  -46.7215    6.7936 C   0  0  0  0  0  0
   -0.6961  -45.3559    6.6884 C   0  0  0  0  0  0
   -1.9385  -45.1775    6.0286 O   0  0  0  0  0  0
   -3.0375  -45.0386    6.8285 C   0  0  0  0  0  0
   -4.1066  -44.2675    6.3653 C   0  0  0  0  0  0
   -5.3575  -44.2723    7.0078 C   0  0  0  0  0  0
   -5.5067  -45.0317    8.1774 C   0  0  0  0  0  0
   -4.4626  -45.8627    8.6014 C   0  0  0  0  0  0
   -3.2095  -45.7791    7.9933 C   0  0  0  0  0  0
   -0.7022  -52.9215    6.9008 H   0  0  0  0  0  0
   -3.0582  -52.6022    6.2209 H   0  0  0  0  0  0
   -3.8018  -50.3818    5.3598 H   0  0  0  0  0  0
   -2.2067  -48.5175    5.2272 H   0  0  0  0  0  0
   -0.3539  -47.2944    4.6830 H   0  0  0  0  0  0
    1.2380  -46.8546    5.1937 H   0  0  0  0  0  0
    0.3838  -46.9734    7.6546 H   0  0  0  0  0  0
   -1.1578  -47.2407    6.9828 H   0  0  0  0  0  0
   -0.0198  -44.7482    6.0910 H   0  0  0  0  0  0
   -0.7675  -44.8588    7.6426 H   0  0  0  0  0  0
   -4.0068  -43.6403    5.4952 H   0  0  0  0  0  0
   -2.3617  -46.2489    8.4683 H   0  0  0  0  0  0
    1.5846  -50.8595    6.9155 N   0  0  0  0  0  0
    2.3681  -51.3580    7.3204 H   0  0  0  0  0  0
   -4.6368  -46.5732    9.3958 H   0  0  0  0  0  0
   -6.4399  -45.0233    8.7194 H   0  0  0  0  0  0
   -7.4830  -43.2147    7.2499 F   0  0  0  0  0  0
   -6.5406  -43.5289    6.3528 C   0  0  0  0  0  0
   -7.1127  -44.3180    5.4364 F   0  0  0  0  0  0
   -6.1393  -42.4182    5.7150 F   0  0  0  0  0  0
  1  2  2  0  0  0
  2  3  1  0  0  0
  2  4  1  0  0  0
  4 11  2  0  0  0
  4 34  1  0  0  0
  5  6  1  0  0  0
  5 10  2  0  0  0
  5 34  1  0  0  0
  6  7  2  0  0  0
  6 22  1  0  0  0
  7  8  1  0  0  0
  7 23  1  0  0  0
  8  9  2  0  0  0
  8 24  1  0  0  0
  9 10  1  0  0  0
  9 25  1  0  0  0
 10 11  1  0  0  0
 11 12  1  0  0  0
 12 26  1  0  0  0
 12 27  1  0  0  0
 12 13  1  0  0  0
 13 14  1  0  0  0
 13 28  1  0  0  0
 13 29  1  0  0  0
 14 15  1  0  0  0
 14 30  1  0  0  0
 14 31  1  0  0  0
 15 16  1  0  0  0
 16 17  1  0  0  0
 16 21  2  0  0  0
 17 18  2  0  0  0
 17 32  1  0  0  0
 18 19  1  0  0  0
 18 39  1  0  0  0
 19 20  2  0  0  0
 19 37  1  0  0  0
 20 21  1  0  0  0
 20 36  1  0  0  0
 21 33  1  0  0  0
 34 35  1  0  0  0
 38 39  1  0  0  0
 39 40  1  0  0  0
 39 41  1  0  0  0
M  CHG  1   3  -1
M  END
> <s_m_entry_id>
336

> <s_m_entry_name>
MCL1_31.1

> <r_m_Molecular_weight>
362.3315

> <s_m_Source_Path>
C:\Users\yujiethinkpad\Desktop\05A\MCL1\original

> <s_m_Source_File>
MCL1_31.sdf

> <r_user_dG.exp>
-7.91951688961355

> <s_fepmapper_entryid>
7

> <i_fepmapper_bias>
0

> <i_fepmapper_affinity>
1

> <r_fepmapper_exp_dG>
-7.91951688961

> <i_fepmapper_unit>
1

> <i_m_Source_File_Index>
1

> <s_m_job_name>
align_ligands_3

> <s_i_glide_gridfile>
glide-grid_MCL1

> <i_i_glide_lignum>
15

> <i_i_glide_rotatable_bonds>
7

> <r_i_docking_score>
-8.44654332317903

> <r_i_glide_ligand_efficiency>
-0.324867050891501

> <r_i_glide_ligand_efficiency_sa>
-0.962417359975953

> <r_i_glide_ligand_efficiency_ln>
-1.98364298407938

> <r_i_glide_gscore>
-8.44654332317903

> <r_i_glide_lipo>
-4.48141136527926

> <r_i_glide_hbond>
-0.2

> <r_i_glide_metal>
0

> <r_i_glide_rewards>
-2.90190977214094

> <r_i_glide_evdw>
-27.4651832580566

> <r_i_glide_ecoul>
-1.43639194965363

> <r_i_glide_erotb>
0.731300272525245

> <r_i_glide_esite>
-0.00580450293320395

> <r_i_glide_emodel>
-36.1266843588125

> <r_i_glide_energy>
-28.9015752077103

> <r_i_glide_einternal>
1.66930329799652

> <i_i_glide_confnum>
47

> <i_i_glide_posenum>
188

> <r_i_glide_eff_state_penalty>
0

> <r_glide_shape_similarity>
0.872725129127502

> <i_phase_Input_Structure_Number>
17

> <i_phase_Structure_Number>
17

> <r_phase_Similarity_to_Reference>
0.884659959322504

> <i_phase_Reference_Structure>
1

> <s_phase_Alignment_Method>
snapped core

> <s_phase_Alignment_Reason>


> <s_phase_Core_SMARTS>
a1aaaaa1AAAAa(aa2)a(a23)aaaa3

> <s_f3d_frozen_atoms>
17 18 19 20 21 16 15 14 13 12 11 4 34 10 5 9 8 7 6 32 37 36 33 30 31 28 29 26 27 35 25 24 23 22

> <s_m_subgroup_title>
align_ligands_3->glide-dock_SP_redock_05676_lib1

> <s_m_subgroupid>
align_ligands_3->glide-dock_SP_redock_05676_lib11

> <b_m_subgroup_collapsed>
0

$$$$
