40
                    3D
 Schrodinger Suite 2021-2.
 49 52  0  0  1  0            999 V2000
    3.0246  -47.2604    6.9944 O   0  0  0  0  0  0
    2.9960  -48.5042    6.8710 C   0  0  0  0  0  0
    4.0304  -49.1832    7.0447 O   0  5  0  0  0  0
    1.7173  -49.1783    6.5232 C   0  0  0  0  0  0
   -0.1074  -50.8954    6.4429 C   0  0  0  0  0  0
   -1.0177  -51.9619    6.5205 C   0  0  0  0  0  0
   -2.3600  -51.7826    6.1407 C   0  0  0  0  0  0
   -2.7782  -50.5305    5.6661 C   0  0  0  0  0  0
   -1.8605  -49.4770    5.5713 C   0  0  0  0  0  0
   -0.5101  -49.6375    5.9492 C   0  0  0  0  0  0
    0.5664  -48.6906    5.9585 C   0  0  0  0  0  0
    0.3137  -47.3112    5.5435 C   0  0  0  0  0  0
   -0.2396  -46.7215    6.7936 C   0  0  0  0  0  0
   -0.6961  -45.3559    6.6884 C   0  0  0  0  0  0
   -1.9385  -45.1775    6.0286 O   0  0  0  0  0  0
   -3.0375  -45.0386    6.8285 C   0  0  0  0  0  0
   -4.1066  -44.2675    6.3653 C   0  0  0  0  0  0
   -5.3575  -44.2723    7.0078 C   0  0  0  0  0  0
   -5.5067  -45.0317    8.1774 C   0  0  0  0  0  0
   -4.4626  -45.8627    8.6014 C   0  0  0  0  0  0
   -3.2095  -45.7791    7.9933 C   0  0  0  0  0  0
   -0.6977  -52.9193    6.9049 H   0  0  0  0  0  0
   -3.0617  -52.6012    6.2166 H   0  0  0  0  0  0
   -3.8000  -50.3848    5.3463 H   0  0  0  0  0  0
   -2.2188  -48.5307    5.2070 H   0  0  0  0  0  0
    1.2328  -46.8601    5.1711 H   0  0  0  0  0  0
   -0.3476  -47.3029    4.6803 H   0  0  0  0  0  0
   -1.0402  -47.3240    7.2263 H   0  0  0  0  0  0
    0.5633  -46.7784    7.5264 H   0  0  0  0  0  0
   -0.7005  -44.8292    7.6212 H   0  0  0  0  0  0
   -0.0075  -44.7643    6.0872 H   0  0  0  0  0  0
   -4.0410  -43.6441    5.5042 H   0  0  0  0  0  0
   -2.3851  -46.3083    8.4369 H   0  0  0  0  0  0
    1.5846  -50.8595    6.9155 N   0  0  0  0  0  0
    2.3687  -51.3607    7.3182 H   0  0  0  0  0  0
   -4.6400  -46.5849    9.3776 H   0  0  0  0  0  0
   -6.4283  -45.0057    8.7400 H   0  0  0  0  0  0
   -6.3613  -43.5663    6.4462 O   0  0  0  0  0  0
   -7.9808  -45.3477    3.0817 C   0  0  0  0  0  0
   -6.7822  -44.6128    2.9208 C   0  0  0  0  0  0
   -6.1986  -43.9846    4.0362 C   0  0  0  0  0  0
   -6.8283  -44.1189    5.3048 C   0  0  0  0  0  0
   -7.9961  -44.8631    5.4642 C   0  0  0  0  0  0
   -8.5909  -45.4667    4.3467 C   0  0  0  0  0  0
   -8.4617  -45.8286    2.2454 H   0  0  0  0  0  0
   -6.3193  -44.5274    1.9486 H   0  0  0  0  0  0
   -5.3025  -43.4052    3.8922 H   0  0  0  0  0  0
   -8.4431  -44.9573    6.4423 H   0  0  0  0  0  0
   -9.5013  -46.0364    4.4506 H   0  0  0  0  0  0
  1  2  2  0  0  0
  2  3  1  0  0  0
  2  4  1  0  0  0
  4 11  2  0  0  0
  4 34  1  0  0  0
  5  6  1  0  0  0
  5 10  2  0  0  0
  5 34  1  0  0  0
  6  7  2  0  0  0
  6 22  1  0  0  0
  7  8  1  0  0  0
  7 23  1  0  0  0
  8  9  2  0  0  0
  8 24  1  0  0  0
  9 10  1  0  0  0
  9 25  1  0  0  0
 10 11  1  0  0  0
 11 12  1  0  0  0
 12 26  1  0  0  0
 12 27  1  0  0  0
 12 13  1  0  0  0
 13 14  1  0  0  0
 13 28  1  0  0  0
 13 29  1  0  0  0
 14 15  1  0  0  0
 14 30  1  0  0  0
 14 31  1  0  0  0
 15 16  1  0  0  0
 16 17  1  0  0  0
 16 21  2  0  0  0
 17 18  2  0  0  0
 17 32  1  0  0  0
 18 19  1  0  0  0
 18 38  1  0  0  0
 19 20  2  0  0  0
 19 37  1  0  0  0
 20 21  1  0  0  0
 20 36  1  0  0  0
 21 33  1  0  0  0
 34 35  1  0  0  0
 38 42  1  0  0  0
 39 40  2  0  0  0
 39 44  1  0  0  0
 39 45  1  0  0  0
 40 41  1  0  0  0
 40 46  1  0  0  0
 41 42  2  0  0  0
 41 47  1  0  0  0
 42 43  1  0  0  0
 43 44  2  0  0  0
 43 48  1  0  0  0
 44 49  1  0  0  0
M  CHG  1   3  -1
M  END
> <s_m_entry_id>
329

> <s_m_entry_name>
MCL1_40.1

> <r_m_Molecular_weight>
386.4313

> <s_m_Source_Path>
C:\Users\yujiethinkpad\Desktop\05A\MCL1\original

> <s_m_Source_File>
MCL1_40.sdf

> <r_user_dG.exp>
-7.25302544244784

> <s_fepmapper_entryid>
23

> <i_fepmapper_bias>
0

> <i_fepmapper_affinity>
1

> <r_fepmapper_exp_dG>
-7.25302544245

> <i_fepmapper_unit>
1

> <i_m_Source_File_Index>
1

> <s_m_job_name>
align_ligands_3

> <s_i_glide_gridfile>
glide-grid_MCL1

> <i_i_glide_lignum>
24

> <i_i_glide_rotatable_bonds>
8

> <r_i_docking_score>
-8.69076331648392

> <r_i_glide_ligand_efficiency>
-0.299681493671859

> <r_i_glide_ligand_efficiency_sa>
-0.920716494321278

> <r_i_glide_ligand_efficiency_ln>
-1.98996442073191

> <r_i_glide_gscore>
-8.69076331648392

> <r_i_glide_lipo>
-6.04953245833998

> <r_i_glide_hbond>
-0.2

> <r_i_glide_metal>
0

> <r_i_glide_rewards>
-1.62863838386866

> <r_i_glide_evdw>
-27.7901420593262

> <r_i_glide_ecoul>
-2.12750482559204

> <r_i_glide_erotb>
0.912416869947118

> <r_i_glide_esite>
-0.0163765174172794

> <r_i_glide_emodel>
-29.7648890758995

> <r_i_glide_energy>
-29.9176468849182

> <r_i_glide_einternal>
9.27027606964111

> <i_i_glide_confnum>
39

> <i_i_glide_posenum>
31

> <r_i_glide_eff_state_penalty>
0

> <r_glide_shape_similarity>
0.751785695552826

> <i_phase_Input_Structure_Number>
10

> <i_phase_Structure_Number>
10

> <r_phase_Similarity_to_Reference>
0.760138945622171

> <i_phase_Reference_Structure>
1

> <s_phase_Alignment_Method>
snapped core

> <s_phase_Alignment_Reason>


> <s_phase_Core_SMARTS>
a1aaaaa1AAAAa(aa2)a(a23)aaaa3

> <s_f3d_frozen_atoms>
17 18 19 20 21 16 15 14 13 12 11 4 34 10 5 9 8 7 6 32 37 36 33 30 31 28 29 26 27 35 25 24 23 22

> <s_m_subgroup_title>
align_ligands_3->glide-dock_SP_redock_05676_lib1

> <s_m_subgroupid>
align_ligands_3->glide-dock_SP_redock_05676_lib11

> <b_m_subgroup_collapsed>
0

$$$$
