45
                    3D
 Schrodinger Suite 2021-2.
 48 51  0  0  1  0            999 V2000
    3.0246  -47.2604    6.9944 O   0  0  0  0  0  0
    2.9960  -48.5042    6.8710 C   0  0  0  0  0  0
    4.0304  -49.1832    7.0447 O   0  5  0  0  0  0
    1.7173  -49.1783    6.5232 C   0  0  0  0  0  0
   -0.1074  -50.8954    6.4429 C   0  0  0  0  0  0
   -1.0177  -51.9619    6.5205 C   0  0  0  0  0  0
   -2.3600  -51.7826    6.1407 C   0  0  0  0  0  0
   -2.7782  -50.5305    5.6661 C   0  0  0  0  0  0
   -1.8605  -49.4770    5.5713 C   0  0  0  0  0  0
   -0.5101  -49.6375    5.9492 C   0  0  0  0  0  0
    0.5664  -48.6906    5.9585 C   0  0  0  0  0  0
    0.3137  -47.3112    5.5435 C   0  0  0  0  0  0
   -0.2396  -46.7215    6.7936 C   0  0  0  0  0  0
   -0.6961  -45.3559    6.6884 C   0  0  0  0  0  0
   -1.9385  -45.1775    6.0286 O   0  0  0  0  0  0
   -3.0375  -45.0386    6.8285 C   0  0  0  0  0  0
   -5.5067  -45.0317    8.1774 C   0  0  0  0  0  0
   -4.4626  -45.8627    8.6014 C   0  0  0  0  0  0
   -3.2095  -45.7791    7.9933 C   0  0  0  0  0  0
   -0.6962  -52.9213    6.8973 H   0  0  0  0  0  0
   -3.0571  -52.6061    6.2031 H   0  0  0  0  0  0
   -3.7998  -50.3792    5.3479 H   0  0  0  0  0  0
   -2.2029  -48.5351    5.1797 H   0  0  0  0  0  0
    1.2366  -46.8511    5.1905 H   0  0  0  0  0  0
   -0.3494  -47.2940    4.6802 H   0  0  0  0  0  0
   -1.0540  -47.3050    7.1930 H   0  0  0  0  0  0
    0.5236  -46.8361    7.5415 H   0  0  0  0  0  0
   -0.7901  -44.8341    7.6392 H   0  0  0  0  0  0
    0.0463  -44.7685    6.1502 H   0  0  0  0  0  0
   -2.3706  -46.2842    8.4485 H   0  0  0  0  0  0
   -5.3575  -44.2723    7.0078 C   0  0  0  0  0  0
   -4.1066  -44.2675    6.3653 C   0  0  0  0  0  0
   -3.8887  -43.3998    5.1137 C   0  0  0  0  0  0
   -5.1705  -42.8553    4.4298 C   0  0  0  0  0  0
   -6.4895  -43.4567    4.9621 C   0  0  0  0  0  0
   -6.5398  -43.5439    6.3873 C   0  0  0  0  0  0
   -4.6084  -46.5631    9.4065 H   0  0  0  0  0  0
   -6.4355  -45.0263    8.7282 H   0  0  0  0  0  0
   -3.2316  -42.5703    5.3707 H   0  0  0  0  0  0
   -3.3377  -43.9926    4.3818 H   0  0  0  0  0  0
   -5.1044  -43.0058    3.3527 H   0  0  0  0  0  0
   -5.2189  -41.7771    4.5568 H   0  0  0  0  0  0
   -6.6234  -44.4508    4.5457 H   0  0  0  0  0  0
   -7.3362  -42.8657    4.6163 H   0  0  0  0  0  0
   -7.4743  -44.0264    6.6813 H   0  0  0  0  0  0
   -6.5564  -42.5163    6.7343 H   0  0  0  0  0  0
    1.5846  -50.8595    6.9155 N   0  0  0  0  0  0
    2.3645  -51.3601    7.3301 H   0  0  0  0  0  0
  1  2  2  0  0  0
  2  3  1  0  0  0
  2  4  1  0  0  0
  4 11  2  0  0  0
  4 47  1  0  0  0
  5  6  1  0  0  0
  5 10  2  0  0  0
  5 47  1  0  0  0
  6  7  2  0  0  0
  6 20  1  0  0  0
  7  8  1  0  0  0
  7 21  1  0  0  0
  8  9  2  0  0  0
  8 22  1  0  0  0
  9 10  1  0  0  0
  9 23  1  0  0  0
 10 11  1  0  0  0
 11 12  1  0  0  0
 12 24  1  0  0  0
 12 25  1  0  0  0
 12 13  1  0  0  0
 13 14  1  0  0  0
 13 26  1  0  0  0
 13 27  1  0  0  0
 14 15  1  0  0  0
 14 28  1  0  0  0
 14 29  1  0  0  0
 15 16  1  0  0  0
 16 19  2  0  0  0
 16 32  1  0  0  0
 17 18  2  0  0  0
 17 31  1  0  0  0
 17 38  1  0  0  0
 18 19  1  0  0  0
 18 37  1  0  0  0
 19 30  1  0  0  0
 31 32  2  0  0  0
 31 36  1  0  0  0
 32 33  1  0  0  0
 33 34  1  0  0  0
 33 39  1  0  0  0
 33 40  1  0  0  0
 34 35  1  0  0  0
 34 41  1  0  0  0
 34 42  1  0  0  0
 35 36  1  0  0  0
 35 43  1  0  0  0
 35 44  1  0  0  0
 36 45  1  0  0  0
 36 46  1  0  0  0
 47 48  1  0  0  0
M  CHG  1   3  -1
M  END
> <s_m_entry_id>
327

> <s_m_entry_name>
MCL1_45.1

> <r_m_Molecular_weight>
348.42554

> <s_m_Source_Path>
C:\Users\yujiethinkpad\Desktop\05A\MCL1\original

> <s_m_Source_File>
MCL1_45.sdf

> <r_user_dG.exp>
-8.95356461676206

> <s_fepmapper_entryid>
39

> <i_fepmapper_bias>
0

> <i_fepmapper_affinity>
1

> <r_fepmapper_exp_dG>
-8.95356461676

> <i_fepmapper_unit>
1

> <i_m_Source_File_Index>
1

> <s_m_job_name>
align_ligands_3

> <s_i_glide_gridfile>
glide-grid_MCL1

> <i_i_glide_lignum>
29

> <i_i_glide_rotatable_bonds>
6

> <r_i_docking_score>
-8.82958971960135

> <r_i_glide_ligand_efficiency>
-0.339599604600052

> <r_i_glide_ligand_efficiency_sa>
-1.00606249236774

> <r_i_glide_ligand_efficiency_ln>
-2.07360017340142

> <r_i_glide_gscore>
-8.82958971960135

> <r_i_glide_lipo>
-5.45581090198567

> <r_i_glide_hbond>
-0.2

> <r_i_glide_metal>
0

> <r_i_glide_rewards>
-1.93353422727273

> <r_i_glide_evdw>
-29.281213760376

> <r_i_glide_ecoul>
-2.56633067131042

> <r_i_glide_erotb>
0.627262239314276

> <r_i_glide_esite>
-0.0184965409418637

> <r_i_glide_emodel>
-40.0458782044952

> <r_i_glide_energy>
-31.8475444316864

> <r_i_glide_einternal>
5.60157108306885

> <i_i_glide_confnum>
9

> <i_i_glide_posenum>
3

> <r_i_glide_eff_state_penalty>
0

> <r_glide_shape_similarity>
0.877935230731964

> <i_phase_Input_Structure_Number>
8

> <i_phase_Structure_Number>
8

> <r_phase_Similarity_to_Reference>
0.848241108194356

> <i_phase_Reference_Structure>
1

> <s_phase_Alignment_Method>
snapped core

> <s_phase_Alignment_Reason>


> <s_phase_Core_SMARTS>
a1aaaaa1AAAAa(aa2)a(a23)aaaa3

> <s_f3d_frozen_atoms>
32 31 17 18 19 16 15 14 13 12 11 4 47 10 5 9 8 7 6 38 37 30 28 29 26 27 24 25 48 23 22 21 20

> <s_m_subgroup_title>
align_ligands_3->glide-dock_SP_redock_05676_lib1

> <s_m_subgroupid>
align_ligands_3->glide-dock_SP_redock_05676_lib11

> <b_m_subgroup_collapsed>
0

$$$$
