46
                    3D
 Schrodinger Suite 2021-2.
 45 48  0  0  1  0            999 V2000
    3.0246  -47.2604    6.9944 O   0  0  0  0  0  0
    2.9960  -48.5042    6.8710 C   0  0  0  0  0  0
    4.0304  -49.1832    7.0447 O   0  5  0  0  0  0
    1.7173  -49.1783    6.5232 C   0  0  0  0  0  0
   -0.1074  -50.8954    6.4429 C   0  0  0  0  0  0
   -1.0177  -51.9619    6.5205 C   0  0  0  0  0  0
   -2.3600  -51.7826    6.1407 C   0  0  0  0  0  0
   -2.7782  -50.5305    5.6661 C   0  0  0  0  0  0
   -1.8605  -49.4770    5.5713 C   0  0  0  0  0  0
   -0.5101  -49.6375    5.9492 C   0  0  0  0  0  0
    0.5664  -48.6906    5.9585 C   0  0  0  0  0  0
    0.3137  -47.3112    5.5435 C   0  0  0  0  0  0
   -0.2396  -46.7215    6.7936 C   0  0  0  0  0  0
   -0.6961  -45.3559    6.6884 C   0  0  0  0  0  0
   -1.9385  -45.1775    6.0286 O   0  0  0  0  0  0
   -3.0375  -45.0386    6.8285 C   0  0  0  0  0  0
   -4.4626  -45.8627    8.6014 C   0  0  0  0  0  0
   -3.2095  -45.7791    7.9933 C   0  0  0  0  0  0
   -0.6858  -52.9173    6.9002 H   0  0  0  0  0  0
   -3.0617  -52.5990    6.2297 H   0  0  0  0  0  0
   -3.8080  -50.3825    5.3651 H   0  0  0  0  0  0
   -2.1831  -48.5169    5.2037 H   0  0  0  0  0  0
    1.2470  -46.8582    5.1945 H   0  0  0  0  0  0
   -0.3454  -47.2964    4.6787 H   0  0  0  0  0  0
   -1.0721  -47.3082    7.1666 H   0  0  0  0  0  0
    0.5201  -46.7602    7.5655 H   0  0  0  0  0  0
   -0.8627  -44.9298    7.6706 H   0  0  0  0  0  0
    0.0600  -44.7591    6.1700 H   0  0  0  0  0  0
   -2.3593  -46.2985    8.4175 H   0  0  0  0  0  0
   -4.1066  -44.2675    6.3653 C   0  0  0  0  0  0
   -4.6673  -46.5704    9.3956 H   0  0  0  0  0  0
   -4.0335  -43.6171    5.5079 H   0  0  0  0  0  0
    1.5846  -50.8595    6.9155 N   0  0  0  0  0  0
   -7.6979  -44.1949    7.4028 C   0  0  0  0  0  0
   -6.5894  -43.5439    6.5364 C   0  0  0  0  0  0
   -5.3575  -44.2723    7.0078 C   0  0  0  0  0  0
   -5.5067  -45.0317    8.1774 C   0  0  0  0  0  0
   -6.8620  -44.8200    8.8210 C   0  0  0  0  0  0
   -7.3287  -45.7091    9.2311 H   0  0  0  0  0  0
   -6.8093  -44.0622    9.5968 H   0  0  0  0  0  0
   -8.0665  -45.0455    6.8268 H   0  0  0  0  0  0
   -8.5473  -43.5451    7.5733 H   0  0  0  0  0  0
   -6.4984  -42.4749    6.7355 H   0  0  0  0  0  0
   -6.7610  -43.6963    5.4715 H   0  0  0  0  0  0
    2.3790  -51.3717    7.2836 H   0  0  0  0  0  0
  1  2  2  0  0  0
  2  3  1  0  0  0
  2  4  1  0  0  0
  4 11  2  0  0  0
  4 33  1  0  0  0
  5  6  1  0  0  0
  5 10  2  0  0  0
  5 33  1  0  0  0
  6  7  2  0  0  0
  6 19  1  0  0  0
  7  8  1  0  0  0
  7 20  1  0  0  0
  8  9  2  0  0  0
  8 21  1  0  0  0
  9 10  1  0  0  0
  9 22  1  0  0  0
 10 11  1  0  0  0
 11 12  1  0  0  0
 12 23  1  0  0  0
 12 24  1  0  0  0
 12 13  1  0  0  0
 13 14  1  0  0  0
 13 25  1  0  0  0
 13 26  1  0  0  0
 14 15  1  0  0  0
 14 27  1  0  0  0
 14 28  1  0  0  0
 15 16  1  0  0  0
 16 18  2  0  0  0
 16 30  1  0  0  0
 17 18  1  0  0  0
 17 31  1  0  0  0
 17 37  2  0  0  0
 18 29  1  0  0  0
 30 32  1  0  0  0
 30 36  2  0  0  0
 33 45  1  0  0  0
 34 35  1  0  0  0
 34 38  1  0  0  0
 34 41  1  0  0  0
 34 42  1  0  0  0
 35 36  1  0  0  0
 35 43  1  0  0  0
 35 44  1  0  0  0
 36 37  1  0  0  0
 37 38  1  0  0  0
 38 39  1  0  0  0
 38 40  1  0  0  0
M  CHG  1   3  -1
M  END
> <s_m_entry_id>
337

> <s_m_entry_name>
MCL1_46.1

> <r_m_Molecular_weight>
334.39845

> <s_m_Source_Path>
C:\Users\yujiethinkpad\Desktop\05A\MCL1\original

> <s_m_Source_File>
MCL1_46.sdf

> <r_user_dG.exp>
-7.60113429727595

> <s_fepmapper_entryid>
5

> <i_fepmapper_bias>
0

> <i_fepmapper_affinity>
1

> <r_fepmapper_exp_dG>
-7.60113429728

> <i_fepmapper_unit>
1

> <i_m_Source_File_Index>
1

> <s_m_job_name>
align_ligands_3

> <s_i_glide_gridfile>
glide-grid_MCL1

> <i_i_glide_lignum>
30

> <i_i_glide_rotatable_bonds>
6

> <r_i_docking_score>
-8.40847141430786

> <r_i_glide_ligand_efficiency>
-0.336338856572314

> <r_i_glide_ligand_efficiency_sa>
-0.983460781612468

> <r_i_glide_ligand_efficiency_ln>
-1.99305970674559

> <r_i_glide_gscore>
-8.40847141430786

> <r_i_glide_lipo>
-4.96227705737566

> <r_i_glide_hbond>
-0.2

> <r_i_glide_metal>
0

> <r_i_glide_rewards>
-1.91899900791095

> <r_i_glide_evdw>
-30.0711841583252

> <r_i_glide_ecoul>
-3.21748733520508

> <r_i_glide_erotb>
0.674678162084637

> <r_i_glide_esite>
-0.0156912029088616

> <r_i_glide_emodel>
-45.2544645422207

> <r_i_glide_energy>
-33.2886714935303

> <r_i_glide_einternal>
4.23552942276001

> <i_i_glide_confnum>
60

> <i_i_glide_posenum>
292

> <r_i_glide_eff_state_penalty>
0

> <r_glide_shape_similarity>
0.909765660762787

> <i_phase_Input_Structure_Number>
18

> <i_phase_Structure_Number>
18

> <r_phase_Similarity_to_Reference>
0.893026111009491

> <i_phase_Reference_Structure>
1

> <s_phase_Alignment_Method>
snapped core

> <s_phase_Alignment_Reason>


> <s_phase_Core_SMARTS>
a1aaaaa1AAAAa(aa2)a(a23)aaaa3

> <s_f3d_frozen_atoms>
30 36 37 17 18 16 15 14 13 12 11 4 33 10 5 9 8 7 6 32 31 29 27 28 25 26 23 24 45 22 21 20 19

> <s_m_subgroup_title>
align_ligands_3->glide-dock_SP_redock_05676_lib1

> <s_m_subgroupid>
align_ligands_3->glide-dock_SP_redock_05676_lib11

> <b_m_subgroup_collapsed>
0

$$$$
