47
                    3D
 Schrodinger Suite 2021-2.
 43 46  0  0  1  0            999 V2000
    3.0246  -47.2604    6.9944 O   0  0  0  0  0  0
    2.9960  -48.5042    6.8710 C   0  0  0  0  0  0
    4.0304  -49.1832    7.0447 O   0  5  0  0  0  0
    1.7173  -49.1783    6.5232 C   0  0  0  0  0  0
   -0.1074  -50.8954    6.4429 C   0  0  0  0  0  0
   -1.0177  -51.9619    6.5205 C   0  0  0  0  0  0
   -2.3600  -51.7826    6.1407 C   0  0  0  0  0  0
   -2.7782  -50.5305    5.6661 C   0  0  0  0  0  0
   -1.8605  -49.4770    5.5713 C   0  0  0  0  0  0
   -0.5101  -49.6375    5.9492 C   0  0  0  0  0  0
    0.5664  -48.6906    5.9585 C   0  0  0  0  0  0
    0.3137  -47.3112    5.5435 C   0  0  0  0  0  0
   -0.2396  -46.7215    6.7936 C   0  0  0  0  0  0
   -0.6961  -45.3559    6.6884 C   0  0  0  0  0  0
   -1.9385  -45.1775    6.0286 O   0  0  0  0  0  0
   -3.0375  -45.0386    6.8285 C   0  0  0  0  0  0
   -4.4626  -45.8627    8.6014 C   0  0  0  0  0  0
   -3.2095  -45.7791    7.9933 C   0  0  0  0  0  0
   -0.6982  -52.9212    6.8958 H   0  0  0  0  0  0
   -3.0635  -52.5996    6.2215 H   0  0  0  0  0  0
   -3.8023  -50.3878    5.3603 H   0  0  0  0  0  0
   -2.1971  -48.5119    5.2183 H   0  0  0  0  0  0
    1.2448  -46.8634    5.1900 H   0  0  0  0  0  0
   -0.3560  -47.3021    4.6809 H   0  0  0  0  0  0
   -1.0742  -47.3030    7.1718 H   0  0  0  0  0  0
    0.5032  -46.7496    7.5824 H   0  0  0  0  0  0
   -0.8372  -44.9390    7.6762 H   0  0  0  0  0  0
    0.0624  -44.7617    6.1782 H   0  0  0  0  0  0
   -2.3696  -46.3081    8.4137 H   0  0  0  0  0  0
   -4.1066  -44.2675    6.3653 C   0  0  0  0  0  0
   -4.6344  -46.5465    9.4168 H   0  0  0  0  0  0
   -5.3575  -44.2723    7.0078 C   0  0  0  0  0  0
   -5.5067  -45.0317    8.1774 C   0  0  0  0  0  0
   -6.6166  -44.9417    8.9332 N   0  0  0  0  0  0
   -7.5729  -44.0876    8.5228 C   0  0  0  0  0  0
   -7.5137  -43.2816    7.3687 C   0  0  0  0  0  0
   -6.3839  -43.5052    6.4343 C   0  0  0  0  0  0
   -8.4214  -44.0454    9.1792 H   0  0  0  0  0  0
   -8.2542  -42.5184    7.1909 H   0  0  0  0  0  0
   -6.3441  -43.1611    5.4116 H   0  0  0  0  0  0
   -4.0170  -43.5682    5.5496 H   0  0  0  0  0  0
    1.5846  -50.8595    6.9155 N   0  0  0  0  0  0
    2.3683  -51.3626    7.3173 H   0  0  0  0  0  0
  1  2  2  0  0  0
  2  3  1  0  0  0
  2  4  1  0  0  0
  4 11  2  0  0  0
  4 42  1  0  0  0
  5  6  1  0  0  0
  5 10  2  0  0  0
  5 42  1  0  0  0
  6  7  2  0  0  0
  6 19  1  0  0  0
  7  8  1  0  0  0
  7 20  1  0  0  0
  8  9  2  0  0  0
  8 21  1  0  0  0
  9 10  1  0  0  0
  9 22  1  0  0  0
 10 11  1  0  0  0
 11 12  1  0  0  0
 12 23  1  0  0  0
 12 24  1  0  0  0
 12 13  1  0  0  0
 13 14  1  0  0  0
 13 25  1  0  0  0
 13 26  1  0  0  0
 14 15  1  0  0  0
 14 27  1  0  0  0
 14 28  1  0  0  0
 15 16  1  0  0  0
 16 18  2  0  0  0
 16 30  1  0  0  0
 17 18  1  0  0  0
 17 31  1  0  0  0
 17 33  2  0  0  0
 18 29  1  0  0  0
 30 32  2  0  0  0
 30 41  1  0  0  0
 32 33  1  0  0  0
 32 37  1  0  0  0
 33 34  1  0  0  0
 34 35  2  0  0  0
 35 36  1  0  0  0
 35 38  1  0  0  0
 36 37  2  0  0  0
 36 39  1  0  0  0
 37 40  1  0  0  0
 42 43  1  0  0  0
M  CHG  1   3  -1
M  END
> <s_m_entry_id>
345

> <s_m_entry_name>
MCL1_47.1

> <r_m_Molecular_weight>
345.38124

> <s_m_Source_Path>
C:\Users\yujiethinkpad\Desktop\05A\MCL1\original

> <s_m_Source_File>
MCL1_47.sdf

> <r_user_dG.exp>
-5.77553168796231

> <s_fepmapper_entryid>
33

> <i_fepmapper_bias>
0

> <i_fepmapper_affinity>
1

> <r_fepmapper_exp_dG>
-5.77553168796

> <i_fepmapper_unit>
1

> <i_m_Source_File_Index>
1

> <s_m_job_name>
align_ligands_3

> <s_i_glide_gridfile>
glide-grid_MCL1

> <i_i_glide_lignum>
31

> <i_i_glide_rotatable_bonds>
6

> <r_i_docking_score>
-8.24277919530206

> <r_i_glide_ligand_efficiency>
-0.317029969050079

> <r_i_glide_ligand_efficiency_sa>
-0.939200035858169

> <r_i_glide_ligand_efficiency_ln>
-1.93578964725212

> <r_i_glide_gscore>
-8.24277919530206

> <r_i_glide_lipo>
-4.94764854570558

> <r_i_glide_hbond>
-0.2

> <r_i_glide_metal>
0

> <r_i_glide_rewards>
-1.8358290448328

> <r_i_glide_evdw>
-27.6986618041992

> <r_i_glide_ecoul>
-3.31566953659058

> <r_i_glide_erotb>
0.637114732374426

> <r_i_glide_esite>
-0.0141328164395639

> <r_i_glide_emodel>
-39.3198243280577

> <r_i_glide_energy>
-31.0143313407898

> <r_i_glide_einternal>
3.95834875106812

> <i_i_glide_confnum>
43

> <i_i_glide_posenum>
9

> <r_i_glide_eff_state_penalty>
0

> <r_glide_shape_similarity>
0.887234687805176

> <i_phase_Input_Structure_Number>
26

> <i_phase_Structure_Number>
26

> <r_phase_Similarity_to_Reference>
0.894487411151972

> <i_phase_Reference_Structure>
1

> <s_phase_Alignment_Method>
snapped core

> <s_phase_Alignment_Reason>


> <s_phase_Core_SMARTS>
a1aaaaa1AAAAa(aa2)a(a23)aaaa3

> <s_f3d_frozen_atoms>
30 32 33 17 18 16 15 14 13 12 11 4 42 10 5 9 8 7 6 41 31 29 27 28 25 26 23 24 43 22 21 20 19

> <s_m_subgroup_title>
align_ligands_3->glide-dock_SP_redock_05676_lib1

> <s_m_subgroupid>
align_ligands_3->glide-dock_SP_redock_05676_lib11

> <b_m_subgroup_collapsed>
0

$$$$
