49
                    3D
 Schrodinger Suite 2021-2.
 41 43  0  0  1  0            999 V2000
    3.0246  -47.2604    6.9944 O   0  0  0  0  0  0
    2.9960  -48.5042    6.8710 C   0  0  0  0  0  0
    4.0304  -49.1832    7.0447 O   0  5  0  0  0  0
    1.7173  -49.1783    6.5232 C   0  0  0  0  0  0
   -0.1074  -50.8954    6.4429 C   0  0  0  0  0  0
   -1.0177  -51.9619    6.5205 C   0  0  0  0  0  0
   -2.3600  -51.7826    6.1407 C   0  0  0  0  0  0
   -2.7782  -50.5305    5.6661 C   0  0  0  0  0  0
   -1.8605  -49.4770    5.5713 C   0  0  0  0  0  0
   -0.5101  -49.6375    5.9492 C   0  0  0  0  0  0
    0.5664  -48.6906    5.9585 C   0  0  0  0  0  0
    0.3137  -47.3112    5.5435 C   0  0  0  0  0  0
   -0.2396  -46.7215    6.7936 C   0  0  0  0  0  0
   -0.6961  -45.3559    6.6884 C   0  0  0  0  0  0
   -1.9385  -45.1775    6.0286 O   0  0  0  0  0  0
   -3.0375  -45.0386    6.8285 C   0  0  0  0  0  0
   -4.1066  -44.2675    6.3653 C   0  0  0  0  0  0
   -5.3575  -44.2723    7.0078 C   0  0  0  0  0  0
   -6.5236  -43.5491    6.3884 C   0  0  0  0  0  0
   -5.5067  -45.0317    8.1774 C   0  0  0  0  0  0
   -6.9241  -44.9116    9.1223 Cl  0  0  0  0  0  0
   -4.4626  -45.8627    8.6014 C   0  0  0  0  0  0
   -3.2095  -45.7791    7.9933 C   0  0  0  0  0  0
   -0.6859  -52.9219    6.8869 H   0  0  0  0  0  0
   -3.0679  -52.5929    6.2500 H   0  0  0  0  0  0
   -3.8127  -50.3669    5.3890 H   0  0  0  0  0  0
   -2.5354  -47.9789    5.0680 Cl  0  0  0  0  0  0
   -0.3257  -47.2951    4.6658 H   0  0  0  0  0  0
    1.2470  -46.8738    5.1966 H   0  0  0  0  0  0
    0.5419  -46.8223    7.5353 H   0  0  0  0  0  0
   -1.0609  -47.3404    7.1501 H   0  0  0  0  0  0
    0.0573  -44.7680    6.1640 H   0  0  0  0  0  0
   -0.8125  -44.9475    7.6875 H   0  0  0  0  0  0
   -3.9692  -43.6530    5.4884 H   0  0  0  0  0  0
   -6.1915  -42.8411    5.6296 H   0  0  0  0  0  0
   -7.1034  -43.0089    7.1373 H   0  0  0  0  0  0
   -7.1869  -44.2660    5.9067 H   0  0  0  0  0  0
   -2.3988  -46.2865    8.4868 H   0  0  0  0  0  0
   -4.5941  -46.5152    9.4475 H   0  0  0  0  0  0
    1.5846  -50.8595    6.9155 N   0  0  0  0  0  0
    2.3697  -51.3540    7.3177 H   0  0  0  0  0  0
  1  2  2  0  0  0
  2  3  1  0  0  0
  2  4  1  0  0  0
  4 11  2  0  0  0
  4 40  1  0  0  0
  5  6  1  0  0  0
  5 10  2  0  0  0
  5 40  1  0  0  0
  6  7  2  0  0  0
  6 24  1  0  0  0
  7  8  1  0  0  0
  7 25  1  0  0  0
  8  9  2  0  0  0
  8 26  1  0  0  0
  9 10  1  0  0  0
  9 27  1  0  0  0
 10 11  1  0  0  0
 11 12  1  0  0  0
 12 28  1  0  0  0
 12 29  1  0  0  0
 12 13  1  0  0  0
 13 14  1  0  0  0
 13 30  1  0  0  0
 13 31  1  0  0  0
 14 15  1  0  0  0
 14 32  1  0  0  0
 14 33  1  0  0  0
 15 16  1  0  0  0
 16 17  1  0  0  0
 16 23  2  0  0  0
 17 18  2  0  0  0
 17 34  1  0  0  0
 18 19  1  0  0  0
 18 20  1  0  0  0
 19 35  1  0  0  0
 19 36  1  0  0  0
 19 37  1  0  0  0
 20 21  1  0  0  0
 20 22  2  0  0  0
 22 23  1  0  0  0
 22 39  1  0  0  0
 23 38  1  0  0  0
 40 41  1  0  0  0
M  CHG  1   3  -1
M  END
> <s_m_entry_id>
351

> <s_m_entry_name>
MCL1_49.1

> <r_m_Molecular_weight>
377.25027

> <s_m_Source_Path>
C:\Users\yujiethinkpad\Desktop\05A\MCL1\original

> <s_m_Source_File>
MCL1_49.sdf

> <r_user_dG.exp>
-8.36145743731744

> <s_fepmapper_entryid>
26

> <i_fepmapper_bias>
0

> <i_fepmapper_affinity>
1

> <r_fepmapper_exp_dG>
-8.36145743732

> <i_fepmapper_unit>
1

> <i_m_Source_File_Index>
1

> <s_m_job_name>
align_ligands_3

> <s_i_glide_gridfile>
glide-grid_MCL1

> <i_i_glide_lignum>
33

> <i_i_glide_rotatable_bonds>
6

> <r_i_docking_score>
-7.82439531638358

> <r_i_glide_ligand_efficiency>
-0.312975812655343

> <r_i_glide_ligand_efficiency_sa>
-0.915146826853896

> <r_i_glide_ligand_efficiency_ln>
-1.85461616818931

> <r_i_glide_gscore>
-7.82439531638358

> <r_i_glide_lipo>
-4.91154717617191

> <r_i_glide_hbond>
-0.258030052187779

> <r_i_glide_metal>
0

> <r_i_glide_rewards>
-1.5896961023289

> <r_i_glide_evdw>
-28.7393493652344

> <r_i_glide_ecoul>
-1.82805752754211

> <r_i_glide_erotb>
0.680424897087132

> <r_i_glide_esite>
-0.0343707853890903

> <r_i_glide_emodel>
-33.1896164521143

> <r_i_glide_energy>
-30.5674068927765

> <r_i_glide_einternal>
9.8300952911377

> <i_i_glide_confnum>
196

> <i_i_glide_posenum>
131

> <r_i_glide_eff_state_penalty>
0

> <r_glide_shape_similarity>
0.877646565437317

> <i_phase_Input_Structure_Number>
32

> <i_phase_Structure_Number>
32

> <r_phase_Similarity_to_Reference>
0.922924535567724

> <i_phase_Reference_Structure>
1

> <s_phase_Alignment_Method>
snapped core

> <s_phase_Alignment_Reason>


> <s_phase_Core_SMARTS>
a1aaaaa1AAAAa(aa2)a(a23)aaaa3

> <s_f3d_frozen_atoms>
17 18 20 22 23 16 15 14 13 12 11 4 40 10 5 9 8 7 6 34 21 39 38 32 33 30 31 28 29 41 27 26 25 24

> <s_m_subgroup_title>
align_ligands_3->glide-dock_SP_redock_05676_lib1

> <s_m_subgroupid>
align_ligands_3->glide-dock_SP_redock_05676_lib11

> <b_m_subgroup_collapsed>
0

$$$$
