62
                    3D
 Schrodinger Suite 2021-2.
 43 46  0  0  1  0            999 V2000
    3.0246  -47.2604    6.9944 O   0  0  0  0  0  0
    2.9960  -48.5042    6.8710 C   0  0  0  0  0  0
    4.0304  -49.1832    7.0447 O   0  5  0  0  0  0
    1.7173  -49.1783    6.5232 C   0  0  0  0  0  0
    1.5846  -50.8595    6.9155 S   0  0  0  0  0  0
   -0.1074  -50.8954    6.4429 C   0  0  0  0  0  0
   -1.0177  -51.9619    6.5205 C   0  0  0  0  0  0
   -2.3600  -51.7826    6.1407 C   0  0  0  0  0  0
   -2.7782  -50.5305    5.6661 C   0  0  0  0  0  0
   -1.8605  -49.4770    5.5713 C   0  0  0  0  0  0
   -0.5101  -49.6375    5.9492 C   0  0  0  0  0  0
    0.5664  -48.6906    5.9585 C   0  0  0  0  0  0
    0.3137  -47.3112    5.5435 C   0  0  0  0  0  0
   -0.2396  -46.7215    6.7936 C   0  0  0  0  0  0
   -0.6961  -45.3559    6.6884 C   0  0  0  0  0  0
   -1.9385  -45.1775    6.0286 O   0  0  0  0  0  0
   -3.0375  -45.0386    6.8285 C   0  0  0  0  0  0
   -5.5067  -45.0317    8.1774 C   0  0  0  0  0  0
   -4.4626  -45.8627    8.6014 C   0  0  0  0  0  0
   -3.2095  -45.7791    7.9933 C   0  0  0  0  0  0
   -0.6921  -52.9229    6.8919 H   0  0  0  0  0  0
   -3.0632  -52.5977    6.2366 H   0  0  0  0  0  0
   -3.8195  -50.3757    5.4190 H   0  0  0  0  0  0
   -2.5354  -47.9789    5.0680 Cl  0  0  0  0  0  0
    1.1861  -46.8412    5.0972 H   0  0  0  0  0  0
   -0.4109  -47.3275    4.7299 H   0  0  0  0  0  0
   -1.0754  -47.3590    7.0924 H   0  0  0  0  0  0
    0.4835  -46.7854    7.5968 H   0  0  0  0  0  0
   -0.8086  -44.8721    7.6516 H   0  0  0  0  0  0
    0.0155  -44.7450    6.1381 H   0  0  0  0  0  0
   -2.3747  -46.2419    8.4920 H   0  0  0  0  0  0
   -5.3575  -44.2723    7.0078 C   0  0  0  0  0  0
   -4.1066  -44.2675    6.3653 C   0  0  0  0  0  0
   -3.9566  -43.4991    5.1864 C   0  0  0  0  0  0
   -5.0271  -42.7360    4.6799 C   0  0  0  0  0  0
   -6.2673  -42.7374    5.3442 C   0  0  0  0  0  0
   -6.4327  -43.5066    6.5107 C   0  0  0  0  0  0
   -3.0141  -43.4910    4.6590 H   0  0  0  0  0  0
   -4.8947  -42.1532    3.7801 H   0  0  0  0  0  0
   -7.0899  -42.1530    4.9584 H   0  0  0  0  0  0
   -7.3858  -43.5084    7.0189 H   0  0  0  0  0  0
   -4.6071  -46.5435    9.4254 H   0  0  0  0  0  0
   -6.4547  -45.0502    8.6976 H   0  0  0  0  0  0
  1  2  2  0  0  0
  2  3  1  0  0  0
  2  4  1  0  0  0
  4  5  1  0  0  0
  4 12  2  0  0  0
  5  6  1  0  0  0
  6  7  1  0  0  0
  6 11  2  0  0  0
  7  8  2  0  0  0
  7 21  1  0  0  0
  8  9  1  0  0  0
  8 22  1  0  0  0
  9 10  2  0  0  0
  9 23  1  0  0  0
 10 11  1  0  0  0
 10 24  1  0  0  0
 11 12  1  0  0  0
 12 13  1  0  0  0
 13 25  1  0  0  0
 13 26  1  0  0  0
 13 14  1  0  0  0
 14 15  1  0  0  0
 14 27  1  0  0  0
 14 28  1  0  0  0
 15 16  1  0  0  0
 15 29  1  0  0  0
 15 30  1  0  0  0
 16 17  1  0  0  0
 17 20  2  0  0  0
 17 33  1  0  0  0
 18 19  2  0  0  0
 18 32  1  0  0  0
 18 43  1  0  0  0
 19 20  1  0  0  0
 19 42  1  0  0  0
 20 31  1  0  0  0
 32 33  2  0  0  0
 32 37  1  0  0  0
 33 34  1  0  0  0
 34 35  2  0  0  0
 34 38  1  0  0  0
 35 36  1  0  0  0
 35 39  1  0  0  0
 36 37  2  0  0  0
 36 40  1  0  0  0
 37 41  1  0  0  0
M  CHG  1   3  -1
M  END
> <s_m_entry_id>
323

> <s_m_entry_name>
MCL1_62.1

> <r_m_Molecular_weight>
395.88802

> <s_m_Source_Path>
C:\Users\yujiethinkpad\Desktop\05A\MCL1\original

> <s_m_Source_File>
MCL1_62.sdf

> <r_user_dG.exp>
-7.95565704541698

> <s_fepmapper_entryid>
24

> <i_fepmapper_bias>
0

> <i_fepmapper_affinity>
1

> <r_fepmapper_exp_dG>
-7.95565704542

> <i_fepmapper_unit>
1

> <i_m_Source_File_Index>
1

> <s_m_job_name>
align_ligands_3

> <s_i_glide_gridfile>
glide-grid_MCL1

> <i_i_glide_lignum>
2

> <i_i_glide_rotatable_bonds>
6

> <r_i_docking_score>
-8.88822041063867

> <r_i_glide_ligand_efficiency>
-0.329193348542173

> <r_i_glide_ligand_efficiency_sa>
-0.987580044541551

> <r_i_glide_ligand_efficiency_ln>
-2.06903117783098

> <r_i_glide_gscore>
-8.88822041063867

> <r_i_glide_lipo>
-5.343353442875

> <r_i_glide_hbond>
-0.2

> <r_i_glide_metal>
0

> <r_i_glide_rewards>
-1.96486773083575

> <r_i_glide_evdw>
-28.9815349578857

> <r_i_glide_ecoul>
-2.86758017539978

> <r_i_glide_erotb>
0.499214537276342

> <r_i_glide_esite>
0

> <r_i_glide_emodel>
-31.4206279001651

> <r_i_glide_energy>
-31.8491151332855

> <r_i_glide_einternal>
7.04789352416992

> <i_i_glide_confnum>
32

> <i_i_glide_posenum>
159

> <r_i_glide_eff_state_penalty>
0

> <r_glide_shape_similarity>
0.804591655731201

> <i_phase_Input_Structure_Number>
4

> <i_phase_Structure_Number>
4

> <r_phase_Similarity_to_Reference>
0.855877651336232

> <i_phase_Reference_Structure>
1

> <s_phase_Alignment_Method>
snapped core

> <s_phase_Alignment_Reason>


> <s_phase_Core_SMARTS>
a1aaaaa1AAAAa(aa2)a(a23)aaaa3

> <s_f3d_frozen_atoms>
33 32 18 19 20 17 16 15 14 13 12 4 5 11 6 10 9 8 7 43 42 31 29 30 27 28 25 26 24 23 22 21

> <s_m_subgroup_title>
align_ligands_3->glide-dock_SP_redock_05676_lib1

> <s_m_subgroupid>
align_ligands_3->glide-dock_SP_redock_05676_lib11

> <b_m_subgroup_collapsed>
0

$$$$
