67
                    3D
 Schrodinger Suite 2021-2.
 43 45  0  0  1  0            999 V2000
    3.0246  -47.2604    6.9944 O   0  0  0  0  0  0
    2.9960  -48.5042    6.8710 C   0  0  0  0  0  0
    4.0304  -49.1832    7.0447 O   0  5  0  0  0  0
    1.7173  -49.1783    6.5232 C   0  0  0  0  0  0
   -0.1074  -50.8954    6.4429 C   0  0  0  0  0  0
   -1.0177  -51.9619    6.5205 C   0  0  0  0  0  0
   -2.3600  -51.7826    6.1407 C   0  0  0  0  0  0
   -2.7782  -50.5305    5.6661 C   0  0  0  0  0  0
   -1.8605  -49.4770    5.5713 C   0  0  0  0  0  0
   -0.5101  -49.6375    5.9492 C   0  0  0  0  0  0
    0.5664  -48.6906    5.9585 C   0  0  0  0  0  0
    0.3137  -47.3112    5.5435 C   0  0  0  0  0  0
   -0.2396  -46.7215    6.7936 C   0  0  0  0  0  0
   -0.6961  -45.3559    6.6884 C   0  0  0  0  0  0
   -1.9385  -45.1775    6.0286 O   0  0  0  0  0  0
   -3.0375  -45.0386    6.8285 C   0  0  0  0  0  0
   -3.2095  -45.7791    7.9933 C   0  0  0  0  0  0
   -4.4626  -45.8627    8.6014 C   0  0  0  0  0  0
   -4.6588  -46.9153    9.6564 C   0  0  0  0  0  0
   -5.5067  -45.0317    8.1774 C   0  0  0  0  0  0
   -6.9241  -44.9116    9.1223 Cl  0  0  0  0  0  0
   -5.3575  -44.2723    7.0078 C   0  0  0  0  0  0
   -6.5236  -43.5491    6.3884 C   0  0  0  0  0  0
   -4.1066  -44.2675    6.3653 C   0  0  0  0  0  0
   -0.6910  -52.9206    6.8995 H   0  0  0  0  0  0
   -3.0610  -52.6017    6.2314 H   0  0  0  0  0  0
   -3.8064  -50.3797    5.3708 H   0  0  0  0  0  0
   -2.1983  -48.5086    5.2248 H   0  0  0  0  0  0
   -0.3483  -47.2958    4.6792 H   0  0  0  0  0  0
    1.2440  -46.8642    5.1897 H   0  0  0  0  0  0
    0.5321  -46.7419    7.5562 H   0  0  0  0  0  0
   -1.0544  -47.3302    7.1817 H   0  0  0  0  0  0
    0.0437  -44.7664    6.1472 H   0  0  0  0  0  0
   -0.8499  -44.9181    7.6674 H   0  0  0  0  0  0
   -2.3915  -46.3371    8.4226 H   0  0  0  0  0  0
   -4.0530  -47.7853    9.4128 H   0  0  0  0  0  0
   -5.6893  -47.2669    9.6339 H   0  0  0  0  0  0
   -4.3735  -46.5591   10.6470 H   0  0  0  0  0  0
   -6.1915  -42.8411    5.6296 H   0  0  0  0  0  0
   -7.1869  -44.2660    5.9067 H   0  0  0  0  0  0
   -7.1034  -43.0089    7.1373 H   0  0  0  0  0  0
   -3.9678  -43.6773    5.4683 H   0  0  0  0  0  0
    1.5846  -50.8595    6.9155 O   0  0  0  0  0  0
  1  2  2  0  0  0
  2  3  1  0  0  0
  2  4  1  0  0  0
  4 11  2  0  0  0
  4 43  1  0  0  0
  5  6  1  0  0  0
  5 10  2  0  0  0
  5 43  1  0  0  0
  6  7  2  0  0  0
  6 25  1  0  0  0
  7  8  1  0  0  0
  7 26  1  0  0  0
  8  9  2  0  0  0
  8 27  1  0  0  0
  9 10  1  0  0  0
  9 28  1  0  0  0
 10 11  1  0  0  0
 11 12  1  0  0  0
 12 29  1  0  0  0
 12 30  1  0  0  0
 12 13  1  0  0  0
 13 14  1  0  0  0
 13 31  1  0  0  0
 13 32  1  0  0  0
 14 15  1  0  0  0
 14 33  1  0  0  0
 14 34  1  0  0  0
 15 16  1  0  0  0
 16 17  1  0  0  0
 16 24  2  0  0  0
 17 18  2  0  0  0
 17 35  1  0  0  0
 18 19  1  0  0  0
 18 20  1  0  0  0
 19 36  1  0  0  0
 19 37  1  0  0  0
 19 38  1  0  0  0
 20 21  1  0  0  0
 20 22  2  0  0  0
 22 23  1  0  0  0
 22 24  1  0  0  0
 23 39  1  0  0  0
 23 40  1  0  0  0
 23 41  1  0  0  0
 24 42  1  0  0  0
M  CHG  1   3  -1
M  END
> <s_m_entry_id>
347

> <s_m_entry_name>
MCL1_67.1

> <r_m_Molecular_weight>
357.81706

> <s_m_Source_Path>
C:\Users\yujiethinkpad\Desktop\05A\MCL1\original

> <s_m_Source_File>
MCL1_67.sdf

> <r_user_dG.exp>
-7.58092456527552

> <s_fepmapper_entryid>
41

> <i_fepmapper_bias>
0

> <i_fepmapper_affinity>
1

> <r_fepmapper_exp_dG>
-7.58092456528

> <i_fepmapper_unit>
1

> <i_m_Source_File_Index>
1

> <s_m_job_name>
align_ligands_3

> <s_i_glide_gridfile>
glide-grid_MCL1

> <i_i_glide_lignum>
7

> <i_i_glide_rotatable_bonds>
6

> <r_i_docking_score>
-8.23492410963084

> <r_i_glide_ligand_efficiency>
-0.329396964385234

> <r_i_glide_ligand_efficiency_sa>
-0.963162565742461

> <r_i_glide_ligand_efficiency_ln>
-1.95192379474409

> <r_i_glide_gscore>
-8.23492410963084

> <r_i_glide_lipo>
-4.94300718015773

> <r_i_glide_hbond>
-0.2

> <r_i_glide_metal>
0

> <r_i_glide_rewards>
-1.82593691967623

> <r_i_glide_evdw>
-31.478048324585

> <r_i_glide_ecoul>
-2.84402251243591

> <r_i_glide_erotb>
0.74783252790683

> <r_i_glide_esite>
-0.0133067446090816

> <r_i_glide_emodel>
-47.1184598771252

> <r_i_glide_energy>
-34.3220708370209

> <r_i_glide_einternal>
4.02506399154663

> <i_i_glide_confnum>
271

> <i_i_glide_posenum>
122

> <r_i_glide_eff_state_penalty>
0

> <r_glide_shape_similarity>
0.910862386226654

> <i_phase_Input_Structure_Number>
28

> <i_phase_Structure_Number>
28

> <r_phase_Similarity_to_Reference>
0.976903072421875

> <i_phase_Reference_Structure>
1

> <s_phase_Alignment_Method>
snapped core

> <s_phase_Alignment_Reason>


> <s_phase_Core_SMARTS>
a1aaaaa1AAAAa(aa2)a(a23)aaaa3

> <s_f3d_frozen_atoms>
24 22 20 18 17 16 15 14 13 12 11 4 43 10 5 9 8 7 6 42 21 35 33 34 31 32 29 30 28 27 26 25

> <s_m_subgroup_title>
align_ligands_3->glide-dock_SP_redock_05676_lib1

> <s_m_subgroupid>
align_ligands_3->glide-dock_SP_redock_05676_lib11

> <b_m_subgroup_collapsed>
0

$$$$
