CAT-13i
                    3D
 Schrodinger Suite 2021-2.
 46 49  0  0  1  0            999 V2000
   11.9296   -2.2394    1.0895 C   0  0  0  0  0  0
   13.2032   -2.6085    0.4707 N   0  0  0  0  0  0
   14.3915   -2.6578    1.0709 C   0  0  0  0  0  0
   14.5830   -2.4498    2.3632 N   0  0  0  0  0  0
   15.3842   -2.9540    0.2434 N   0  3  0  0  0  0
   14.8858   -3.0835   -1.1179 C   0  0  2  0  0  0
   15.3109   -4.4384   -1.7316 C   0  0  0  0  0  0
   14.9071   -5.7084   -1.0603 C   0  0  0  0  0  0
   13.8926   -6.6109   -1.7103 C   0  0  0  0  0  0
   15.3431   -6.9988   -1.7142 C   0  0  0  0  0  0
   15.3232   -1.9099   -2.0002 C   0  0  0  0  0  0
   15.8189   -2.1573   -3.2993 C   0  0  0  0  0  0
   16.1994   -1.1230   -4.1440 C   0  0  0  0  0  0
   16.0750    0.1905   -3.7160 C   0  0  0  0  0  0
   15.5763    0.4950   -2.4427 C   0  0  0  0  0  0
   15.3485    1.9117   -2.1401 C   0  0  0  0  0  0
   14.5899    2.6543   -3.0593 C   0  0  0  0  0  0
   14.2772    4.0013   -2.8388 C   0  0  0  0  0  0
   14.6520    4.6118   -1.6473 C   0  0  0  0  0  0
   15.3414    3.8680   -0.6935 C   0  0  0  0  0  0
   15.3871    4.5150    0.8959 Cl  0  0  0  0  0  0
   15.7845    2.5609   -0.9748 C   0  0  0  0  0  0
   15.2157   -0.5608   -1.5760 C   0  0  0  0  0  0
   13.3888   -2.9447   -0.8894 C   0  0  0  0  0  0
   12.4891   -3.0492   -1.7131 O   0  0  0  0  0  0
   11.8659   -1.1536    1.1637 H   0  0  0  0  0  0
   11.0768   -2.5826    0.5000 H   0  0  0  0  0  0
   11.8409   -2.6716    2.0884 H   0  0  0  0  0  0
   15.5571   -2.4492    2.7614 H   0  0  0  0  0  0
   16.3532   -3.0810    0.5476 H   0  0  0  0  0  0
   16.3975   -4.4629   -1.8408 H   0  0  0  0  0  0
   14.8838   -4.5237   -2.7314 H   0  0  0  0  0  0
   14.9643   -5.6981    0.0254 H   0  0  0  0  0  0
   13.4501   -6.2858   -2.6524 H   0  0  0  0  0  0
   13.2248   -7.1635   -1.0529 H   0  0  0  0  0  0
   15.6554   -7.8041   -1.0535 H   0  0  0  0  0  0
   15.8560   -6.9561   -2.6721 H   0  0  0  0  0  0
   15.9490   -3.1376   -3.7219 H   0  0  0  0  0  0
   16.5923   -1.3329   -5.1290 H   0  0  0  0  0  0
   16.3546    0.9785   -4.3995 H   0  0  0  0  0  0
   14.2384    2.1810   -3.9659 H   0  0  0  0  0  0
   13.7081    4.5557   -3.5705 H   0  0  0  0  0  0
   14.3241    5.6193   -1.4299 H   0  0  0  0  0  0
   16.3066    1.9966   -0.2202 H   0  0  0  0  0  0
   14.8167   -0.3237   -0.6004 H   0  0  0  0  0  0
   13.7804   -2.2958    2.9586 H   0  0  0  0  0  0
  1  2  1  0  0  0
  1 26  1  0  0  0
  1 27  1  0  0  0
  1 28  1  0  0  0
  2  3  1  0  0  0
  2 24  1  0  0  0
  3  4  1  0  0  0
  3  5  2  0  0  0
  4 29  1  0  0  0
  4 46  1  0  0  0
  5  6  1  0  0  0
  5 30  1  0  0  0
  6  7  1  0  0  0
  6 11  1  0  0  0
  6 24  1  0  0  0
  7  8  1  0  0  0
  7 31  1  0  0  0
  7 32  1  0  0  0
  8  9  1  0  0  0
  8 10  1  0  0  0
  8 33  1  0  0  0
  9 10  1  0  0  0
  9 34  1  0  0  0
  9 35  1  0  0  0
 10 36  1  0  0  0
 10 37  1  0  0  0
 11 12  2  0  0  0
 11 23  1  0  0  0
 12 13  1  0  0  0
 12 38  1  0  0  0
 13 14  2  0  0  0
 13 39  1  0  0  0
 14 15  1  0  0  0
 14 40  1  0  0  0
 15 16  1  0  0  0
 15 23  2  0  0  0
 16 17  2  0  0  0
 16 22  1  0  0  0
 17 18  1  0  0  0
 17 41  1  0  0  0
 18 19  2  0  0  0
 18 42  1  0  0  0
 19 20  1  0  0  0
 19 43  1  0  0  0
 20 21  1  0  0  0
 20 22  2  0  0  0
 22 44  1  0  0  0
 23 45  1  0  0  0
 24 25  2  0  0  0
M  CHG  1   5   1
M  END
> <s_m_entry_id>
1417

> <s_m_entry_name>
Bace_CAT-13i.1

> <s_m_Source_Path>
C:\Users\yujiethinkpad\Desktop\05A\BACE

> <s_m_Source_File>
Bace_CAT-13i.sdf

> <i_m_Source_File_Index>
1

> <s_i_glide_gridfile>
glide-grid_Bace

> <r_i_docking_score>
-6.269907175915

> <r_i_glide_ecoul>
-12.5081901550293

> <r_i_glide_einternal>
2.07947564125061

> <r_i_glide_emodel>
-41.1361049919715

> <r_i_glide_energy>
-34.934383392334

> <r_i_glide_erotb>
0.607164906377822

> <r_i_glide_esite>
-0.189716193112998

> <r_i_glide_evdw>
-22.4261932373047

> <r_i_glide_gscore>
-6.269907175915

> <r_i_glide_hbond>
-0.301025511831083

> <r_i_glide_ligand_efficiency>
-0.2507962870366

> <r_i_glide_ligand_efficiency_ln>
-1.48615589464781

> <r_i_glide_ligand_efficiency_sa>
-0.733332791186109

> <r_i_glide_lipo>
-2.28177714278728

> <r_i_glide_metal>
0

> <r_i_glide_rewards>
-1.10701504944183

> <i_i_glide_confnum>
65

> <i_i_glide_lignum>
28

> <i_i_glide_posenum>
195

> <i_i_glide_rotatable_bonds>
4

> <r_i_glide_eff_state_penalty>
0

> <s_m_job_name>
glide-dock_SP_bace_other

> <r_user_dG.exp>
-9.273

> <r_m_Molecular_weight>
354.86287

> <r_glide_shape_similarity>
0.888549566268921

> <s_m_subgroup_title>
glide-dock_SP_bace_other_lib1

> <s_m_subgroupid>
glide-dock_SP_bace_other_lib1

> <b_m_subgroup_collapsed>
0

$$$$
