CAT-13f
                    3D
 Schrodinger Suite 2021-2.
 49 52  0  0  1  0            999 V2000
   11.8108   -2.4287    1.4503 C   0  0  0  0  0  0
   13.0746   -2.5451    0.7366 N   0  0  0  0  0  0
   14.2994   -2.5992    1.2575 C   0  0  0  0  0  0
   14.5849   -2.5351    2.5341 N   0  0  0  0  0  0
   15.2521   -2.7608    0.3638 N   0  3  0  0  0  0
   14.6612   -2.9896   -0.9269 C   0  0  1  0  0  0
   15.1914   -1.9438   -1.9046 C   0  0  0  0  0  0
   15.6499   -2.3004   -3.1793 C   0  0  0  0  0  0
   16.0800   -1.3212   -4.0789 C   0  0  0  0  0  0
   16.0369    0.0276   -3.7272 C   0  0  0  0  0  0
   15.5687    0.4257   -2.4698 C   0  0  0  0  0  0
   15.3542    1.8524   -2.2333 C   0  0  0  0  0  0
   14.5769    2.5495   -3.1725 C   0  0  0  0  0  0
   14.2036    3.8840   -2.9719 C   0  0  0  0  0  0
   14.5827    4.5324   -1.7992 C   0  0  0  0  0  0
   15.3132    3.8344   -0.8389 C   0  0  0  0  0  0
   15.3908    4.5141    0.7323 Cl  0  0  0  0  0  0
   15.7854    2.5331   -1.0872 C   0  0  0  0  0  0
   15.1749   -0.5682   -1.5543 C   0  0  0  0  0  0
   14.8378   -4.5172   -1.1570 C   0  0  0  0  0  0
   14.0022   -5.2711   -2.1808 C   0  0  0  0  0  0
   14.5800   -6.6773   -2.0841 C   0  0  0  0  0  0
   16.0800   -6.4683   -1.8842 C   0  0  0  0  0  0
   16.2525   -5.0568   -1.3178 C   0  0  0  0  0  0
   13.1937   -2.6984   -0.6513 C   0  0  0  0  0  0
   12.2649   -2.6257   -1.4508 O   0  0  0  0  0  0
   11.7928   -1.4856    1.9638 H   0  0  0  0  0  0
   10.9469   -2.4717    0.7869 H   0  0  0  0  0  0
   11.7174   -3.2261    2.1870 H   0  0  0  0  0  0
   15.5907   -2.5197    2.8494 H   0  0  0  0  0  0
   16.2384   -2.9091    0.5896 H   0  0  0  0  0  0
   15.6700   -3.3272   -3.5049 H   0  0  0  0  0  0
   16.4294   -1.6050   -5.0610 H   0  0  0  0  0  0
   16.3402    0.7658   -4.4564 H   0  0  0  0  0  0
   14.2250    2.0468   -4.0621 H   0  0  0  0  0  0
   13.5979    4.3969   -3.7043 H   0  0  0  0  0  0
   14.2300    5.5342   -1.5982 H   0  0  0  0  0  0
   16.3124    1.9989   -0.3125 H   0  0  0  0  0  0
   14.7907   -0.2569   -0.5936 H   0  0  0  0  0  0
   14.5060   -4.9729   -0.2185 H   0  0  0  0  0  0
   14.1339   -4.8697   -3.1860 H   0  0  0  0  0  0
   12.9345   -5.2652   -1.9577 H   0  0  0  0  0  0
   14.3575   -7.2866   -2.9605 H   0  0  0  0  0  0
   14.1618   -7.1913   -1.2169 H   0  0  0  0  0  0
   16.5803   -6.5294   -2.8520 H   0  0  0  0  0  0
   16.5203   -7.2345   -1.2416 H   0  0  0  0  0  0
   16.7883   -5.0671   -0.3676 H   0  0  0  0  0  0
   16.8492   -4.4551   -2.0016 H   0  0  0  0  0  0
   13.8258   -2.4314    3.1939 H   0  0  0  0  0  0
  1  2  1  0  0  0
  1 27  1  0  0  0
  1 28  1  0  0  0
  1 29  1  0  0  0
  2  3  1  0  0  0
  2 25  1  0  0  0
  3  4  1  0  0  0
  3  5  2  0  0  0
  4 30  1  0  0  0
  4 49  1  0  0  0
  5  6  1  0  0  0
  5 31  1  0  0  0
  6  7  1  0  0  0
  6 20  1  0  0  0
  6 25  1  0  0  0
  7  8  2  0  0  0
  7 19  1  0  0  0
  8  9  1  0  0  0
  8 32  1  0  0  0
  9 10  2  0  0  0
  9 33  1  0  0  0
 10 11  1  0  0  0
 10 34  1  0  0  0
 11 12  1  0  0  0
 11 19  2  0  0  0
 12 13  2  0  0  0
 12 18  1  0  0  0
 13 14  1  0  0  0
 13 35  1  0  0  0
 14 15  2  0  0  0
 14 36  1  0  0  0
 15 16  1  0  0  0
 15 37  1  0  0  0
 16 17  1  0  0  0
 16 18  2  0  0  0
 18 38  1  0  0  0
 19 39  1  0  0  0
 20 21  1  0  0  0
 20 24  1  0  0  0
 20 40  1  0  0  0
 21 22  1  0  0  0
 21 41  1  0  0  0
 21 42  1  0  0  0
 22 23  1  0  0  0
 22 43  1  0  0  0
 22 44  1  0  0  0
 23 24  1  0  0  0
 23 45  1  0  0  0
 23 46  1  0  0  0
 24 47  1  0  0  0
 24 48  1  0  0  0
 25 26  2  0  0  0
M  CHG  1   5   1
M  END
> <s_m_entry_id>
1404

> <s_m_entry_name>
Bace_CAT-13f.1

> <s_m_Source_Path>
C:\Users\yujiethinkpad\Desktop\05A\BACE

> <s_m_Source_File>
Bace_CAT-13f.sdf

> <i_m_Source_File_Index>
1

> <s_i_glide_gridfile>
glide-grid_Bace

> <r_i_docking_score>
-6.53318181618794

> <r_i_glide_ecoul>
-12.9076194763184

> <r_i_glide_einternal>
1.24299001693726

> <r_i_glide_emodel>
-48.2876874566673

> <r_i_glide_energy>
-35.8293190002441

> <r_i_glide_erotb>
0.424953618093008

> <r_i_glide_esite>
-0.19270258289608

> <r_i_glide_evdw>
-22.9216995239258

> <r_i_glide_gscore>
-6.53318181618794

> <r_i_glide_hbond>
-0.272248731712313

> <r_i_glide_ligand_efficiency>
-0.251276223699536

> <r_i_glide_ligand_efficiency_ln>
-1.53429631241371

> <r_i_glide_ligand_efficiency_sa>
-0.744404823985679

> <r_i_glide_lipo>
-2.24208639498185

> <r_i_glide_metal>
0

> <r_i_glide_rewards>
-1.16886982704666

> <i_i_glide_confnum>
69

> <i_i_glide_lignum>
25

> <i_i_glide_posenum>
176

> <i_i_glide_rotatable_bonds>
3

> <r_i_glide_eff_state_penalty>
0

> <s_m_job_name>
glide-dock_SP_bace_other

> <r_user_dG.exp>
-9.093

> <r_m_Molecular_weight>
368.88996

> <r_glide_shape_similarity>
0.937020540237427

> <s_m_subgroup_title>
glide-dock_SP_bace_other_lib1

> <s_m_subgroupid>
glide-dock_SP_bace_other_lib1

> <b_m_subgroup_collapsed>
0

$$$$
