CAT-4i
                    3D
 Schrodinger Suite 2021-2.
 45 48  0  0  1  0            999 V2000
   11.5464   -2.1495    1.1152 C   0  0  0  0  0  0
   12.8566   -2.4623    0.5250 N   0  0  0  0  0  0
   14.0232   -2.5999    1.1525 C   0  0  0  0  0  0
   14.1886   -2.5649    2.4458 N   0  0  0  0  0  0
   15.0527   -2.8246    0.3531 N   0  3  0  0  0  0
   14.5980   -2.9996   -1.0121 C   0  0  2  0  0  0
   14.8505   -4.4771   -1.3712 C   0  0  0  0  0  0
   16.1635   -4.9962   -1.2853 C   0  0  0  0  0  0
   16.4208   -6.3547   -1.5364 C   0  0  0  0  0  0
   15.3710   -7.2196   -1.8634 C   0  0  0  0  0  0
   14.0606   -6.7323   -1.9138 C   0  0  0  0  0  0
   13.8037   -5.3716   -1.6959 C   0  0  0  0  0  0
   15.1963   -1.9414   -1.9486 C   0  0  0  0  0  0
   15.7647   -2.2928   -3.1942 C   0  0  0  0  0  0
   16.2646   -1.2975   -4.0592 C   0  0  0  0  0  0
   16.1344    0.0595   -3.7140 C   0  0  0  0  0  0
   15.5820    0.4406   -2.4718 C   0  0  0  0  0  0
   15.4479    1.8632   -2.1163 C   0  0  0  0  0  0
   14.5869    2.7149   -2.8350 C   0  0  0  0  0  0
   14.4581    4.0557   -2.4323 C   0  0  0  0  0  0
   15.1837    4.4897   -1.3136 C   0  0  0  0  0  0
   16.0362    3.5778   -0.6799 C   0  0  0  0  0  0
   16.1801    2.3015   -1.0747 N   0  0  0  0  0  0
   15.1467   -0.5692   -1.5896 C   0  0  0  0  0  0
   13.0999   -2.6741   -0.8492 C   0  0  0  0  0  0
   12.2408   -2.5993   -1.7264 O   0  0  0  0  0  0
   11.5130   -2.3914    2.1758 H   0  0  0  0  0  0
   11.3384   -1.0872    0.9837 H   0  0  0  0  0  0
   10.7534   -2.7131    0.6265 H   0  0  0  0  0  0
   15.1597   -2.6383    2.7749 H   0  0  0  0  0  0
   15.9996   -3.0234    0.6621 H   0  0  0  0  0  0
   16.9888   -4.3495   -1.0179 H   0  0  0  0  0  0
   17.4326   -6.7306   -1.4515 H   0  0  0  0  0  0
   15.5589   -8.2723   -1.9965 H   0  0  0  0  0  0
   13.2435   -7.4221   -2.0168 H   0  0  0  0  0  0
   12.7682   -5.0690   -1.7400 H   0  0  0  0  0  0
   15.8492   -3.3256   -3.5006 H   0  0  0  0  0  0
   16.8088   -1.5762   -4.9507 H   0  0  0  0  0  0
   16.5129    0.8173   -4.3834 H   0  0  0  0  0  0
   14.0225    2.3423   -3.6773 H   0  0  0  0  0  0
   13.8000    4.7326   -2.9576 H   0  0  0  0  0  0
   15.0967    5.5055   -0.9565 H   0  0  0  0  0  0
   16.5928    3.8656    0.1933 H   0  0  0  0  0  0
   14.7248   -0.2674   -0.6412 H   0  0  0  0  0  0
   13.4338   -2.3276    3.0844 H   0  0  0  0  0  0
  1  2  1  0  0  0
  1 27  1  0  0  0
  1 28  1  0  0  0
  1 29  1  0  0  0
  2  3  1  0  0  0
  2 25  1  0  0  0
  3  4  1  0  0  0
  3  5  2  0  0  0
  4 30  1  0  0  0
  4 45  1  0  0  0
  5  6  1  0  0  0
  5 31  1  0  0  0
  6  7  1  0  0  0
  6 13  1  0  0  0
  6 25  1  0  0  0
  7  8  2  0  0  0
  7 12  1  0  0  0
  8  9  1  0  0  0
  8 32  1  0  0  0
  9 10  2  0  0  0
  9 33  1  0  0  0
 10 11  1  0  0  0
 10 34  1  0  0  0
 11 12  2  0  0  0
 11 35  1  0  0  0
 12 36  1  0  0  0
 13 14  2  0  0  0
 13 24  1  0  0  0
 14 15  1  0  0  0
 14 37  1  0  0  0
 15 16  2  0  0  0
 15 38  1  0  0  0
 16 17  1  0  0  0
 16 39  1  0  0  0
 17 18  1  0  0  0
 17 24  2  0  0  0
 18 19  2  0  0  0
 18 23  1  0  0  0
 19 20  1  0  0  0
 19 40  1  0  0  0
 20 21  2  0  0  0
 20 41  1  0  0  0
 21 22  1  0  0  0
 21 42  1  0  0  0
 22 23  2  0  0  0
 22 43  1  0  0  0
 24 44  1  0  0  0
 25 26  2  0  0  0
M  CHG  1   5   1
M  END
> <s_m_entry_id>
1415

> <s_m_entry_name>
Bace_CAT-4i.1

> <s_m_Source_Path>
C:\Users\yujiethinkpad\Desktop\05A\BACE

> <s_m_Source_File>
Bace_CAT-4i.sdf

> <i_m_Source_File_Index>
1

> <s_i_glide_gridfile>
glide-grid_Bace

> <r_i_docking_score>
-6.32792605348396

> <r_i_glide_ecoul>
-8.19025135040283

> <r_i_glide_einternal>
1.1168292760849

> <r_i_glide_emodel>
-49.6026355516896

> <r_i_glide_energy>
-36.2495641708374

> <r_i_glide_erotb>
0.482711238036396

> <r_i_glide_esite>
-0.115578277962586

> <r_i_glide_evdw>
-28.0593128204346

> <r_i_glide_gscore>
-6.32792605348396

> <r_i_glide_hbond>
-0.4

> <r_i_glide_ligand_efficiency>
-0.243381771287845

> <r_i_glide_ligand_efficiency_ln>
-1.48609267004177

> <r_i_glide_ligand_efficiency_sa>
-0.721017539779213

> <r_i_glide_lipo>
-2.29557374900376

> <r_i_glide_metal>
0

> <r_i_glide_rewards>
-1.36798192097185

> <i_i_glide_confnum>
14

> <i_i_glide_lignum>
1

> <i_i_glide_posenum>
226

> <i_i_glide_rotatable_bonds>
3

> <r_i_glide_eff_state_penalty>
0

> <s_m_job_name>
glide-dock_SP_bace_other

> <r_user_dG.exp>
-8.263

> <r_m_Molecular_weight>
343.41178

> <r_m_RMSD_695>
0

> <r_glide_shape_similarity>
0.965439736843109

> <s_m_subgroup_title>
glide-dock_SP_bace_other_lib1

> <s_m_subgroupid>
glide-dock_SP_bace_other_lib1

> <b_m_subgroup_collapsed>
0

$$$$
