CAT-17c
                    3D
 Schrodinger Suite 2021-2.
 44 47  0  0  1  0            999 V2000
   11.8840   -2.1712    1.1527 C   0  0  0  0  0  0
   13.1553   -2.5559    0.5400 N   0  0  0  0  0  0
   14.3566   -2.5452    1.1121 C   0  0  0  0  0  0
   14.5848   -2.2268    2.3643 N   0  0  0  0  0  0
   15.3409   -2.8876    0.3023 N   0  3  0  0  0  0
   14.8272   -3.1095   -1.0272 C   0  0  1  0  0  0
   15.2619   -1.9743   -1.9524 C   0  0  0  0  0  0
   15.7005   -2.2892   -3.2473 C   0  0  0  0  0  0
   16.1098   -1.2890   -4.1234 C   0  0  0  0  0  0
   16.0448    0.0472   -3.7380 C   0  0  0  0  0  0
   15.5684    0.4141   -2.4742 C   0  0  0  0  0  0
   15.3390    1.8400   -2.2425 C   0  0  0  0  0  0
   14.5529    2.5167   -3.1907 C   0  0  0  0  0  0
   14.1851    3.8551   -3.0222 C   0  0  0  0  0  0
   14.5696    4.5327   -1.8680 C   0  0  0  0  0  0
   15.3202    3.8620   -0.8994 C   0  0  0  0  0  0
   15.3758    4.4560    0.4124 C   0  0  0  0  0  0
   15.3842    4.9144    1.4722 N   0  0  0  0  0  0
   15.7843    2.5486   -1.1174 C   0  0  0  0  0  0
   15.2023   -0.6059   -1.5691 C   0  0  0  0  0  0
   15.3127   -4.5027   -1.4626 C   0  0  0  0  0  0
   14.8475   -5.7870   -0.8220 C   0  0  0  0  0  0
   14.4943   -5.5070   -2.2488 C   0  0  0  0  0  0
   13.3287   -2.9438   -0.8027 C   0  0  0  0  0  0
   12.4222   -3.0474   -1.6219 O   0  0  0  0  0  0
   11.8086   -1.0864    1.1673 H   0  0  0  0  0  0
   11.0337   -2.5536    0.5884 H   0  0  0  0  0  0
   11.8048   -2.5523    2.1702 H   0  0  0  0  0  0
   15.5659   -2.2852    2.7506 H   0  0  0  0  0  0
   16.3173   -3.0039    0.5914 H   0  0  0  0  0  0
   15.7436   -3.3045   -3.6093 H   0  0  0  0  0  0
   16.4775   -1.5445   -5.1075 H   0  0  0  0  0  0
   16.3391    0.8046   -4.4514 H   0  0  0  0  0  0
   14.1953    1.9963   -4.0680 H   0  0  0  0  0  0
   13.5749    4.3498   -3.7627 H   0  0  0  0  0  0
   14.2105    5.5391   -1.6975 H   0  0  0  0  0  0
   16.3209    2.0261   -0.3386 H   0  0  0  0  0  0
   14.8247   -0.3276   -0.5953 H   0  0  0  0  0  0
   16.3755   -4.5003   -1.7018 H   0  0  0  0  0  0
   15.6069   -6.5437   -0.6255 H   0  0  0  0  0  0
   14.0377   -5.7426   -0.0964 H   0  0  0  0  0  0
   13.4549   -5.2864   -2.4720 H   0  0  0  0  0  0
   15.0117   -6.0765   -3.0182 H   0  0  0  0  0  0
   13.7944   -2.0829    2.9794 H   0  0  0  0  0  0
  1  2  1  0  0  0
  1 26  1  0  0  0
  1 27  1  0  0  0
  1 28  1  0  0  0
  2  3  1  0  0  0
  2 24  1  0  0  0
  3  4  1  0  0  0
  3  5  2  0  0  0
  4 29  1  0  0  0
  4 44  1  0  0  0
  5  6  1  0  0  0
  5 30  1  0  0  0
  6  7  1  0  0  0
  6 21  1  0  0  0
  6 24  1  0  0  0
  7  8  2  0  0  0
  7 20  1  0  0  0
  8  9  1  0  0  0
  8 31  1  0  0  0
  9 10  2  0  0  0
  9 32  1  0  0  0
 10 11  1  0  0  0
 10 33  1  0  0  0
 11 12  1  0  0  0
 11 20  2  0  0  0
 12 13  2  0  0  0
 12 19  1  0  0  0
 13 14  1  0  0  0
 13 34  1  0  0  0
 14 15  2  0  0  0
 14 35  1  0  0  0
 15 16  1  0  0  0
 15 36  1  0  0  0
 16 17  1  0  0  0
 16 19  2  0  0  0
 17 18  3  0  0  0
 19 37  1  0  0  0
 20 38  1  0  0  0
 21 22  1  0  0  0
 21 23  1  0  0  0
 21 39  1  0  0  0
 22 23  1  0  0  0
 22 40  1  0  0  0
 22 41  1  0  0  0
 23 42  1  0  0  0
 23 43  1  0  0  0
 24 25  2  0  0  0
M  CHG  1   5   1
M  END
> <s_m_entry_id>
1392

> <s_m_entry_name>
Bace_CAT-17c.1

> <s_m_Source_Path>
C:\Users\yujiethinkpad\Desktop\05A\BACE

> <s_m_Source_File>
Bace_CAT-17c.sdf

> <i_m_Source_File_Index>
1

> <s_i_glide_gridfile>
glide-grid_Bace

> <r_i_docking_score>
-6.70947549289311

> <r_i_glide_ecoul>
-13.969838142395

> <r_i_glide_einternal>
3.30943131446838

> <r_i_glide_emodel>
-40.7636258569532

> <r_i_glide_energy>
-36.0900754928589

> <r_i_glide_erotb>
0.514132917048054

> <r_i_glide_esite>
-0.189171460402017

> <r_i_glide_evdw>
-22.1202373504639

> <r_i_glide_gscore>
-6.70947549289311

> <r_i_glide_hbond>
-0.29559480591227

> <r_i_glide_ligand_efficiency>
-0.268379019715724

> <r_i_glide_ligand_efficiency_ln>
-1.5903467585711

> <r_i_glide_ligand_efficiency_sa>
-0.78474501337096

> <r_i_glide_lipo>
-1.89708990943191

> <r_i_glide_metal>
0

> <r_i_glide_rewards>
-1.64026464531252

> <i_i_glide_confnum>
24

> <i_i_glide_lignum>
36

> <i_i_glide_posenum>
165

> <i_i_glide_rotatable_bonds>
3

> <r_i_glide_eff_state_penalty>
0

> <s_m_job_name>
glide-dock_SP_bace_other

> <r_user_dG.exp>
-9.863

> <r_m_Molecular_weight>
331.40063

> <r_glide_shape_similarity>
0.862613618373871

> <s_m_subgroup_title>
glide-dock_SP_bace_other_lib1

> <s_m_subgroupid>
glide-dock_SP_bace_other_lib1

> <b_m_subgroup_collapsed>
0

$$$$
