CAT-17b
                    3D
 Schrodinger Suite 2021-2.
 47 50  0  0  1  0            999 V2000
   14.9917    5.2049    0.8780 C   0  0  0  0  0  0
   15.7999    4.1918    0.3122 O   0  0  0  0  0  0
   15.4262    3.7212   -0.9121 C   0  0  0  0  0  0
   14.6458    4.4521   -1.8257 C   0  0  0  0  0  0
   14.1843    3.8326   -2.9861 C   0  0  0  0  0  0
   14.4967    2.4894   -3.2320 C   0  0  0  0  0  0
   15.2873    1.7575   -2.3336 C   0  0  0  0  0  0
   15.5351    0.3447   -2.5733 C   0  0  0  0  0  0
   16.0329   -0.0180   -3.8261 C   0  0  0  0  0  0
   16.1381   -1.3595   -4.1825 C   0  0  0  0  0  0
   15.7493   -2.3564   -3.2873 C   0  0  0  0  0  0
   15.2877   -2.0310   -2.0021 C   0  0  0  0  0  0
   14.8343   -3.1447   -1.0600 C   0  0  1  0  0  0
   15.2863   -4.5543   -1.4744 C   0  0  0  0  0  0
   14.6988   -5.8217   -0.8995 C   0  0  0  0  0  0
   14.4860   -5.4993   -2.3461 C   0  0  0  0  0  0
   15.3473   -2.9262    0.2723 N   0  3  0  0  0  0
   14.3635   -2.6103    1.0926 C   0  0  0  0  0  0
   14.5843   -2.3708    2.3638 N   0  0  0  0  0  0
   13.1667   -2.5764    0.5122 N   0  0  0  0  0  0
   11.9018   -2.1755    1.1289 C   0  0  0  0  0  0
   13.3376   -2.9478   -0.8365 C   0  0  0  0  0  0
   12.4309   -3.0263   -1.6586 O   0  0  0  0  0  0
   15.2011   -0.6616   -1.6445 C   0  0  0  0  0  0
   15.7863    2.4036   -1.2100 C   0  0  0  0  0  0
   15.3770    5.4635    1.8640 H   0  0  0  0  0  0
   14.9894    6.1131    0.2779 H   0  0  0  0  0  0
   13.9634    4.8614    1.0025 H   0  0  0  0  0  0
   14.3588    5.4778   -1.6523 H   0  0  0  0  0  0
   13.5776    4.3852   -3.6876 H   0  0  0  0  0  0
   14.1044    2.0141   -4.1185 H   0  0  0  0  0  0
   16.3037    0.7388   -4.5493 H   0  0  0  0  0  0
   16.4998   -1.6223   -5.1661 H   0  0  0  0  0  0
   15.8164   -3.3782   -3.6271 H   0  0  0  0  0  0
   16.3642   -4.6026   -1.6223 H   0  0  0  0  0  0
   15.3899   -6.6278   -0.6606 H   0  0  0  0  0  0
   13.8386   -5.7416   -0.2381 H   0  0  0  0  0  0
   13.4840   -5.2104   -2.6553 H   0  0  0  0  0  0
   15.0361   -6.0877   -3.0781 H   0  0  0  0  0  0
   16.3163   -3.0757    0.5660 H   0  0  0  0  0  0
   15.5665   -2.3725    2.7464 H   0  0  0  0  0  0
   11.0452   -2.5314    0.5544 H   0  0  0  0  0  0
   11.8135   -2.5754    2.1388 H   0  0  0  0  0  0
   11.8498   -1.0872    1.1639 H   0  0  0  0  0  0
   14.8139   -0.3711   -0.6783 H   0  0  0  0  0  0
   16.3622    1.8448   -0.4874 H   0  0  0  0  0  0
   13.7955   -2.2303    2.9799 H   0  0  0  0  0  0
  1  2  1  0  0  0
  1 26  1  0  0  0
  1 27  1  0  0  0
  1 28  1  0  0  0
  2  3  1  0  0  0
  3  4  2  0  0  0
  3 25  1  0  0  0
  4  5  1  0  0  0
  4 29  1  0  0  0
  5  6  2  0  0  0
  5 30  1  0  0  0
  6  7  1  0  0  0
  6 31  1  0  0  0
  7  8  1  0  0  0
  7 25  2  0  0  0
  8  9  2  0  0  0
  8 24  1  0  0  0
  9 10  1  0  0  0
  9 32  1  0  0  0
 10 11  2  0  0  0
 10 33  1  0  0  0
 11 12  1  0  0  0
 11 34  1  0  0  0
 12 13  1  0  0  0
 12 24  2  0  0  0
 13 14  1  0  0  0
 13 17  1  0  0  0
 13 22  1  0  0  0
 14 15  1  0  0  0
 14 16  1  0  0  0
 14 35  1  0  0  0
 15 16  1  0  0  0
 15 36  1  0  0  0
 15 37  1  0  0  0
 16 38  1  0  0  0
 16 39  1  0  0  0
 17 18  2  0  0  0
 17 40  1  0  0  0
 18 19  1  0  0  0
 18 20  1  0  0  0
 19 41  1  0  0  0
 19 47  1  0  0  0
 20 21  1  0  0  0
 20 22  1  0  0  0
 21 42  1  0  0  0
 21 43  1  0  0  0
 21 44  1  0  0  0
 22 23  2  0  0  0
 24 45  1  0  0  0
 25 46  1  0  0  0
M  CHG  1  17   1
M  END
> <s_m_entry_id>
1405

> <s_m_entry_name>
Bace_CAT-17b.1

> <s_m_Source_Path>
C:\Users\yujiethinkpad\Desktop\05A\BACE

> <s_m_Source_File>
Bace_CAT-17b.sdf

> <i_m_Source_File_Index>
1

> <s_i_glide_gridfile>
glide-grid_Bace

> <r_i_docking_score>
-6.49102976444714

> <r_i_glide_ecoul>
-12.461895942688

> <r_i_glide_einternal>
8.58047866821289

> <r_i_glide_emodel>
-37.0916723273237

> <r_i_glide_energy>
-36.9198541641235

> <r_i_glide_erotb>
0.500644305785069

> <r_i_glide_esite>
-0.189712517008634

> <r_i_glide_evdw>
-24.4579582214355

> <r_i_glide_gscore>
-6.49102976444714

> <r_i_glide_hbond>
-0.297180838433093

> <r_i_glide_ligand_efficiency>
-0.259641190577886

> <r_i_glide_ligand_efficiency_ln>
-1.53856857463917

> <r_i_glide_ligand_efficiency_sa>
-0.75919544600586

> <r_i_glide_lipo>
-2.22018018710156

> <r_i_glide_metal>
0

> <r_i_glide_rewards>
-1.19241822521395

> <i_i_glide_confnum>
22

> <i_i_glide_lignum>
35

> <i_i_glide_posenum>
337

> <i_i_glide_rotatable_bonds>
4

> <r_i_glide_eff_state_penalty>
0

> <s_m_job_name>
glide-dock_SP_bace_other

> <r_user_dG.exp>
-10.023

> <r_m_Molecular_weight>
336.41724

> <r_glide_shape_similarity>
0.858814537525177

> <s_m_subgroup_title>
glide-dock_SP_bace_other_lib1

> <s_m_subgroupid>
glide-dock_SP_bace_other_lib1

> <b_m_subgroup_collapsed>
0

$$$$
