CAT-17f
                    3D
 Schrodinger Suite 2021-2.
 43 46  0  0  1  0            999 V2000
   11.9296   -2.2461    1.1638 C   0  0  0  0  0  0
   13.1929   -2.5874    0.5163 N   0  0  0  0  0  0
   14.3884   -2.5958    1.0954 C   0  0  0  0  0  0
   14.5845   -2.3358    2.3639 N   0  0  0  0  0  0
   15.3849   -2.8997    0.2829 N   0  3  0  0  0  0
   14.8663   -3.1217   -1.0479 C   0  0  1  0  0  0
   15.2997   -1.9955   -1.9821 C   0  0  0  0  0  0
   15.7455   -2.3181   -3.2722 C   0  0  0  0  0  0
   16.1364   -1.3217   -4.1631 C   0  0  0  0  0  0
   16.0534    0.0187   -3.7940 C   0  0  0  0  0  0
   15.5688    0.3860   -2.5351 C   0  0  0  0  0  0
   15.3286    1.8067   -2.3143 C   0  0  0  0  0  0
   14.5381    2.5142   -3.2362 C   0  0  0  0  0  0
   14.1815    3.8029   -3.1107 N   0  0  0  0  0  0
   14.5800    4.4424   -2.0055 C   0  0  0  0  0  0
   15.3286    3.8219   -1.0047 C   0  0  0  0  0  0
   15.3797    4.4393    0.2945 C   0  0  0  0  0  0
   15.3849    4.9146    1.3460 N   0  0  0  0  0  0
   15.7871    2.5100   -1.2004 C   0  0  0  0  0  0
   15.2232   -0.6252   -1.6143 C   0  0  0  0  0  0
   15.3333   -4.5230   -1.4689 C   0  0  0  0  0  0
   14.7664   -5.8002   -0.8949 C   0  0  0  0  0  0
   14.5454   -5.4777   -2.3415 C   0  0  0  0  0  0
   13.3660   -2.9522   -0.8296 C   0  0  0  0  0  0
   12.4602   -3.0457   -1.6522 O   0  0  0  0  0  0
   11.9880   -1.2221    1.5273 H   0  0  0  0  0  0
   11.0816   -2.3212    0.4817 H   0  0  0  0  0  0
   11.7560   -2.9098    2.0103 H   0  0  0  0  0  0
   15.5645   -2.2971    2.7568 H   0  0  0  0  0  0
   16.3536   -3.0484    0.5853 H   0  0  0  0  0  0
   15.8036   -3.3389   -3.6166 H   0  0  0  0  0  0
   16.4908   -1.5878   -5.1485 H   0  0  0  0  0  0
   16.3365    0.7744   -4.5142 H   0  0  0  0  0  0
   14.1510    2.0183   -4.1146 H   0  0  0  0  0  0
   14.1975    5.4451   -1.8752 H   0  0  0  0  0  0
   16.3282    1.9863   -0.4265 H   0  0  0  0  0  0
   14.8461   -0.3433   -0.6410 H   0  0  0  0  0  0
   16.4112   -4.5523   -1.6229 H   0  0  0  0  0  0
   15.4644   -6.6044   -0.6667 H   0  0  0  0  0  0
   13.9130   -5.7266   -0.2201 H   0  0  0  0  0  0
   13.5342   -5.2169   -2.6444 H   0  0  0  0  0  0
   15.1069   -6.0512   -3.0720 H   0  0  0  0  0  0
   13.7781   -2.2195    2.9665 H   0  0  0  0  0  0
  1  2  1  0  0  0
  1 26  1  0  0  0
  1 27  1  0  0  0
  1 28  1  0  0  0
  2  3  1  0  0  0
  2 24  1  0  0  0
  3  4  1  0  0  0
  3  5  2  0  0  0
  4 29  1  0  0  0
  4 43  1  0  0  0
  5  6  1  0  0  0
  5 30  1  0  0  0
  6  7  1  0  0  0
  6 21  1  0  0  0
  6 24  1  0  0  0
  7  8  2  0  0  0
  7 20  1  0  0  0
  8  9  1  0  0  0
  8 31  1  0  0  0
  9 10  2  0  0  0
  9 32  1  0  0  0
 10 11  1  0  0  0
 10 33  1  0  0  0
 11 12  1  0  0  0
 11 20  2  0  0  0
 12 13  2  0  0  0
 12 19  1  0  0  0
 13 14  1  0  0  0
 13 34  1  0  0  0
 14 15  2  0  0  0
 15 16  1  0  0  0
 15 35  1  0  0  0
 16 17  1  0  0  0
 16 19  2  0  0  0
 17 18  3  0  0  0
 19 36  1  0  0  0
 20 37  1  0  0  0
 21 22  1  0  0  0
 21 23  1  0  0  0
 21 38  1  0  0  0
 22 23  1  0  0  0
 22 39  1  0  0  0
 22 40  1  0  0  0
 23 41  1  0  0  0
 23 42  1  0  0  0
 24 25  2  0  0  0
M  CHG  1   5   1
M  END
> <s_m_entry_id>
1395

> <s_m_entry_name>
Bace_CAT-17f.1

> <s_m_Source_Path>
C:\Users\yujiethinkpad\Desktop\05A\BACE

> <s_m_Source_File>
Bace_CAT-17f.sdf

> <i_m_Source_File_Index>
1

> <s_i_glide_gridfile>
glide-grid_Bace

> <r_i_docking_score>
-6.69332981092965

> <r_i_glide_ecoul>
-14.1174030303955

> <r_i_glide_einternal>
3.30564832687378

> <r_i_glide_emodel>
-41.0681180918979

> <r_i_glide_energy>
-36.9504852294922

> <r_i_glide_erotb>
0.51143317059462

> <r_i_glide_esite>
-0.189656973690858

> <r_i_glide_evdw>
-22.8330821990967

> <r_i_glide_gscore>
-6.69332981092965

> <r_i_glide_hbond>
-0.294803588110611

> <r_i_glide_ligand_efficiency>
-0.267733192437186

> <r_i_glide_ligand_efficiency_ln>
-1.58651974809871

> <r_i_glide_ligand_efficiency_sa>
-0.782856602954718

> <r_i_glide_lipo>
-1.80716462403571

> <r_i_glide_metal>
0

> <r_i_glide_rewards>
-1.65387323117293

> <i_i_glide_confnum>
24

> <i_i_glide_lignum>
4

> <i_i_glide_posenum>
36

> <i_i_glide_rotatable_bonds>
3

> <r_i_glide_eff_state_penalty>
0

> <s_m_job_name>
glide-dock_SP_bace_other

> <r_user_dG.exp>
-9.423

> <r_m_Molecular_weight>
332.38821

> <r_glide_shape_similarity>
0.856383740901947

> <s_m_subgroup_title>
glide-dock_SP_bace_other_lib1

> <s_m_subgroupid>
glide-dock_SP_bace_other_lib1

> <b_m_subgroup_collapsed>
0

$$$$
