CAT-17i
                    3D
 Schrodinger Suite 2021-2.
 45 48  0  0  1  0            999 V2000
   15.4133    4.4651    0.4014 C   0  0  0  0  0  0
   15.3123    3.8068   -0.9465 C   0  0  0  0  0  0
   14.5638    4.4287   -1.9492 C   0  0  0  0  0  0
   14.1859    3.8021   -3.0690 N   0  0  0  0  0  0
   14.5549    2.5175   -3.2131 C   0  0  0  0  0  0
   15.3363    1.8031   -2.2872 C   0  0  0  0  0  0
   15.5633    0.3766   -2.5103 C   0  0  0  0  0  0
   16.0470   -0.0052   -3.7612 C   0  0  0  0  0  0
   16.1094   -1.3507   -4.1189 C   0  0  0  0  0  0
   15.6894   -2.3404   -3.2263 C   0  0  0  0  0  0
   15.2264   -2.0111   -1.9447 C   0  0  0  0  0  0
   14.7041   -3.0743   -0.9633 C   0  0  1  0  0  0
   14.8364   -4.5973   -1.1544 C   0  0  0  0  0  0
   14.5792   -5.4159   -2.3846 C   0  0  0  0  0  0
   15.9811   -5.3337   -1.8009 C   0  0  0  0  0  0
   15.2747   -2.8519    0.3382 N   0  3  0  0  0  0
   14.3178   -2.5881    1.2019 C   0  0  0  0  0  0
   14.5848   -2.4456    2.4737 N   0  0  0  0  0  0
   13.1077   -2.4993    0.6604 N   0  0  0  0  0  0
   11.8696   -2.1475    1.3440 C   0  0  0  0  0  0
   13.2367   -2.7627   -0.7132 C   0  0  0  0  0  0
   12.3179   -2.7196   -1.5270 O   0  0  0  0  0  0
   15.1870   -0.6307   -1.5954 C   0  0  0  0  0  0
   15.7848    2.5012   -1.1610 C   0  0  0  0  0  0
   15.4272    5.5530    0.3182 H   0  0  0  0  0  0
   16.2697    4.1129    0.9638 H   0  0  0  0  0  0
   14.5274    4.2106    0.9858 H   0  0  0  0  0  0
   14.1813    5.4291   -1.8131 H   0  0  0  0  0  0
   14.1704    2.0331   -4.1003 H   0  0  0  0  0  0
   16.3421    0.7450   -4.4800 H   0  0  0  0  0  0
   16.4601   -1.6240   -5.1036 H   0  0  0  0  0  0
   15.7260   -3.3523   -3.5786 H   0  0  0  0  0  0
   14.4723   -5.1086   -0.2646 H   0  0  0  0  0  0
   14.0418   -6.3531   -2.2490 H   0  0  0  0  0  0
   14.3431   -4.8965   -3.3103 H   0  0  0  0  0  0
   16.7431   -4.7672   -2.3300 H   0  0  0  0  0  0
   16.3551   -6.2070   -1.2717 H   0  0  0  0  0  0
   16.2502   -3.0349    0.5906 H   0  0  0  0  0  0
   15.5883   -2.4503    2.7929 H   0  0  0  0  0  0
   11.9060   -1.0837    1.5609 H   0  0  0  0  0  0
   10.9891   -2.3424    0.7265 H   0  0  0  0  0  0
   11.7702   -2.7062    2.2763 H   0  0  0  0  0  0
   14.7936   -0.3299   -0.6359 H   0  0  0  0  0  0
   16.3280    1.9874   -0.3812 H   0  0  0  0  0  0
   13.8244   -2.2857    3.1225 H   0  0  0  0  0  0
  1  2  1  0  0  0
  1 25  1  0  0  0
  1 26  1  0  0  0
  1 27  1  0  0  0
  2  3  2  0  0  0
  2 24  1  0  0  0
  3  4  1  0  0  0
  3 28  1  0  0  0
  4  5  2  0  0  0
  5  6  1  0  0  0
  5 29  1  0  0  0
  6  7  1  0  0  0
  6 24  2  0  0  0
  7  8  2  0  0  0
  7 23  1  0  0  0
  8  9  1  0  0  0
  8 30  1  0  0  0
  9 10  2  0  0  0
  9 31  1  0  0  0
 10 11  1  0  0  0
 10 32  1  0  0  0
 11 12  1  0  0  0
 11 23  2  0  0  0
 12 13  1  0  0  0
 12 16  1  0  0  0
 12 21  1  0  0  0
 13 14  1  0  0  0
 13 15  1  0  0  0
 13 33  1  0  0  0
 14 15  1  0  0  0
 14 34  1  0  0  0
 14 35  1  0  0  0
 15 36  1  0  0  0
 15 37  1  0  0  0
 16 17  2  0  0  0
 16 38  1  0  0  0
 17 18  1  0  0  0
 17 19  1  0  0  0
 18 39  1  0  0  0
 18 45  1  0  0  0
 19 20  1  0  0  0
 19 21  1  0  0  0
 20 40  1  0  0  0
 20 41  1  0  0  0
 20 42  1  0  0  0
 21 22  2  0  0  0
 23 43  1  0  0  0
 24 44  1  0  0  0
M  CHG  1  16   1
M  END
> <s_m_entry_id>
1408

> <s_m_entry_name>
Bace_CAT-17i.1

> <s_m_Source_Path>
C:\Users\yujiethinkpad\Desktop\05A\BACE

> <s_m_Source_File>
Bace_CAT-17i.sdf

> <i_m_Source_File_Index>
1

> <s_i_glide_gridfile>
glide-grid_Bace

> <r_i_docking_score>
-6.46839328920046

> <r_i_glide_ecoul>
-13.0328855514526

> <r_i_glide_einternal>
3.89691090583801

> <r_i_glide_emodel>
-36.7043078337644

> <r_i_glide_energy>
-34.0165758132935

> <r_i_glide_erotb>
0.542695088589904

> <r_i_glide_esite>
-0.191815497349756

> <r_i_glide_evdw>
-20.9836902618408

> <r_i_glide_gscore>
-6.46839328920046

> <r_i_glide_hbond>
-0.28028444472029

> <r_i_glide_ligand_efficiency>
-0.269516387050019

> <r_i_glide_ligand_efficiency_ln>
-1.54818332933297

> <r_i_glide_ligand_efficiency_sa>
-0.77741978600383

> <r_i_glide_lipo>
-2.06975250896455

> <r_i_glide_metal>
0

> <r_i_glide_rewards>
-1.46511858094583

> <i_i_glide_confnum>
14

> <i_i_glide_lignum>
7

> <i_i_glide_posenum>
346

> <i_i_glide_rotatable_bonds>
3

> <r_i_glide_eff_state_penalty>
0

> <s_m_job_name>
glide-dock_SP_bace_other

> <r_user_dG.exp>
-9.473

> <r_m_Molecular_weight>
321.40542

> <r_glide_shape_similarity>
0.862766742706299

> <s_m_subgroup_title>
glide-dock_SP_bace_other_lib1

> <s_m_subgroupid>
glide-dock_SP_bace_other_lib1

> <b_m_subgroup_collapsed>
0

$$$$
