CAT-4j
                    3D
 Schrodinger Suite 2021-2.
 45 48  0  0  1  0            999 V2000
   11.8010   -2.1822    1.4261 C   0  0  0  0  0  0
   13.0529   -2.5021    0.7401 N   0  0  0  0  0  0
   14.2824   -2.5954    1.2610 C   0  0  0  0  0  0
   14.5845   -2.4759    2.5332 N   0  0  0  0  0  0
   15.2272   -2.8271    0.3660 N   0  3  0  0  0  0
   14.6448   -3.0065   -0.9494 C   0  0  2  0  0  0
   14.8565   -4.4823   -1.3402 C   0  0  0  0  0  0
   16.1672   -5.0074   -1.2770 C   0  0  0  0  0  0
   16.4142   -6.3638   -1.5357 C   0  0  0  0  0  0
   15.3568   -7.2261   -1.8675 C   0  0  0  0  0  0
   14.0495   -6.7182   -1.9562 C   0  0  0  0  0  0
   13.7962   -5.3582   -1.7005 C   0  0  0  0  0  0
   15.1840   -1.9459   -1.9207 C   0  0  0  0  0  0
   15.6434   -2.2958   -3.2086 C   0  0  0  0  0  0
   16.0518   -1.2960   -4.1096 C   0  0  0  0  0  0
   15.9970    0.0582   -3.7361 C   0  0  0  0  0  0
   15.5568    0.4371   -2.4515 C   0  0  0  0  0  0
   15.4640    1.8576   -2.0781 C   0  0  0  0  0  0
   16.1007    2.3657   -0.9335 C   0  0  0  0  0  0
   15.9435    3.7144   -0.5882 C   0  0  0  0  0  0
   15.1351    4.5161   -1.4009 C   0  0  0  0  0  0
   14.5215    4.0611   -2.5067 N   0  0  0  0  0  0
   14.7003    2.7670   -2.8369 C   0  0  0  0  0  0
   15.1761   -0.5749   -1.5519 C   0  0  0  0  0  0
   13.1667   -2.6900   -0.6525 C   0  0  0  0  0  0
   12.2344   -2.5996   -1.4504 O   0  0  0  0  0  0
   11.7419   -2.6832    2.3910 H   0  0  0  0  0  0
   11.7872   -1.1110    1.5630 H   0  0  0  0  0  0
   10.9222   -2.4669    0.8441 H   0  0  0  0  0  0
   15.5972   -2.4471    2.8406 H   0  0  0  0  0  0
   16.2116   -3.0022    0.5948 H   0  0  0  0  0  0
   16.9968   -4.3678   -1.0012 H   0  0  0  0  0  0
   17.4216   -6.7474   -1.4568 H   0  0  0  0  0  0
   15.5469   -8.2746   -2.0503 H   0  0  0  0  0  0
   13.2361   -7.3793   -2.2151 H   0  0  0  0  0  0
   12.7725   -5.0317   -1.7738 H   0  0  0  0  0  0
   15.6635   -3.3245   -3.5358 H   0  0  0  0  0  0
   16.3934   -1.5642   -5.0985 H   0  0  0  0  0  0
   16.2980    0.8124   -4.4500 H   0  0  0  0  0  0
   16.5850    1.6861   -0.2545 H   0  0  0  0  0  0
   16.3814    4.1108    0.3146 H   0  0  0  0  0  0
   14.9735    5.5553   -1.1522 H   0  0  0  0  0  0
   14.1918    2.4402   -3.7336 H   0  0  0  0  0  0
   14.8257   -0.2829   -0.5715 H   0  0  0  0  0  0
   13.8373   -2.3473    3.2045 H   0  0  0  0  0  0
  1  2  1  0  0  0
  1 27  1  0  0  0
  1 28  1  0  0  0
  1 29  1  0  0  0
  2  3  1  0  0  0
  2 25  1  0  0  0
  3  4  1  0  0  0
  3  5  2  0  0  0
  4 30  1  0  0  0
  4 45  1  0  0  0
  5  6  1  0  0  0
  5 31  1  0  0  0
  6  7  1  0  0  0
  6 13  1  0  0  0
  6 25  1  0  0  0
  7  8  2  0  0  0
  7 12  1  0  0  0
  8  9  1  0  0  0
  8 32  1  0  0  0
  9 10  2  0  0  0
  9 33  1  0  0  0
 10 11  1  0  0  0
 10 34  1  0  0  0
 11 12  2  0  0  0
 11 35  1  0  0  0
 12 36  1  0  0  0
 13 14  2  0  0  0
 13 24  1  0  0  0
 14 15  1  0  0  0
 14 37  1  0  0  0
 15 16  2  0  0  0
 15 38  1  0  0  0
 16 17  1  0  0  0
 16 39  1  0  0  0
 17 18  1  0  0  0
 17 24  2  0  0  0
 18 19  2  0  0  0
 18 23  1  0  0  0
 19 20  1  0  0  0
 19 40  1  0  0  0
 20 21  2  0  0  0
 20 41  1  0  0  0
 21 22  1  0  0  0
 21 42  1  0  0  0
 22 23  2  0  0  0
 23 43  1  0  0  0
 24 44  1  0  0  0
 25 26  2  0  0  0
M  CHG  1   5   1
M  END
> <s_m_entry_id>
1412

> <s_m_entry_name>
Bace_CAT-4j.1

> <s_m_Source_Path>
C:\Users\yujiethinkpad\Desktop\05A\BACE

> <s_m_Source_File>
Bace_CAT-4j.sdf

> <i_m_Source_File_Index>
1

> <s_i_glide_gridfile>
glide-grid_Bace

> <r_i_docking_score>
-6.40069416271311

> <r_i_glide_ecoul>
-12.717095375061

> <r_i_glide_einternal>
1.49452745914459

> <r_i_glide_emodel>
-49.1974794275344

> <r_i_glide_energy>
-34.3186101913452

> <r_i_glide_erotb>
0.482711238036396

> <r_i_glide_esite>
-0.190801145330187

> <r_i_glide_evdw>
-21.6015148162842

> <r_i_glide_gscore>
-6.40069416271311

> <r_i_glide_hbond>
-0.266129615175311

> <r_i_glide_ligand_efficiency>
-0.246180544719735

> <r_i_glide_ligand_efficiency_ln>
-1.50318202172259

> <r_i_glide_ligand_efficiency_sa>
-0.729308895058547

> <r_i_glide_lipo>
-2.09147676416613

> <r_i_glide_metal>
0

> <r_i_glide_rewards>
-1.34735782900451

> <i_i_glide_confnum>
3

> <i_i_glide_lignum>
13

> <i_i_glide_posenum>
151

> <i_i_glide_rotatable_bonds>
3

> <r_i_glide_eff_state_penalty>
0

> <s_m_job_name>
glide-dock_SP_bace_other

> <r_user_dG.exp>
-9.023

> <r_m_Molecular_weight>
343.41178

> <r_glide_shape_similarity>
0.981131076812744

> <s_m_subgroup_title>
glide-dock_SP_bace_other_lib1

> <s_m_subgroupid>
glide-dock_SP_bace_other_lib1

> <b_m_subgroup_collapsed>
0

$$$$
