CAT-4p
                    3D
 Schrodinger Suite 2021-2.
 45 48  0  0  1  0            999 V2000
   11.5644   -2.1863    1.2726 C   0  0  0  0  0  0
   12.8777   -2.4978    0.6758 N   0  0  0  0  0  0
   14.0484   -2.6625    1.3098 C   0  0  0  0  0  0
   14.1903   -2.6838    2.6319 N   0  0  0  0  0  0
   15.0799   -2.8389    0.4726 N   0  3  0  0  0  0
   14.6142   -2.9911   -0.9132 C   0  0  2  0  0  0
   14.8574   -4.4742   -1.3193 C   0  0  0  0  0  0
   13.8048   -5.3554   -1.6993 C   0  0  0  0  0  0
   14.0619   -6.7134   -1.9724 C   0  0  0  0  0  0
   15.3739   -7.2172   -1.8837 C   0  0  0  0  0  0
   16.4352   -6.3570   -1.5410 C   0  0  0  0  0  0
   16.1780   -4.9978   -1.2612 C   0  0  0  0  0  0
   15.1923   -1.9274   -1.8798 C   0  0  0  0  0  0
   15.6573   -2.2965   -3.1691 C   0  0  0  0  0  0
   16.0975   -1.3198   -4.0836 C   0  0  0  0  0  0
   16.0550    0.0427   -3.7350 C   0  0  0  0  0  0
   15.5780    0.4594   -2.4676 C   0  0  0  0  0  0
   15.3463    1.9114   -2.2472 C   0  0  0  0  0  0
   14.5849    2.6078   -3.2231 C   0  0  0  0  0  0
   14.1858    3.8971   -3.1191 N   0  0  0  0  0  0
   14.4689    4.5461   -1.9739 C   0  0  0  0  0  0
   15.1649    3.9456   -0.9058 C   0  0  0  0  0  0
   15.0542    4.7056    0.6490 Cl  0  0  0  0  0  0
   15.7182    2.6454   -1.0890 C   0  0  0  0  0  0
   15.1805   -0.5407   -1.5365 C   0  0  0  0  0  0
   13.1092   -2.6664   -0.7195 C   0  0  0  0  0  0
   12.2355   -2.5621   -1.5855 O   0  0  0  0  0  0
   11.5288   -2.4454    2.3288 H   0  0  0  0  0  0
   11.3623   -1.1220    1.1617 H   0  0  0  0  0  0
   10.7708   -2.7376    0.7688 H   0  0  0  0  0  0
   15.1691   -2.6885    2.9712 H   0  0  0  0  0  0
   16.0439   -3.0294    0.7652 H   0  0  0  0  0  0
   12.7800   -5.0280   -1.7809 H   0  0  0  0  0  0
   13.2516   -7.3747   -2.2433 H   0  0  0  0  0  0
   15.5631   -8.2628   -2.0723 H   0  0  0  0  0  0
   17.4439   -6.7393   -1.4660 H   0  0  0  0  0  0
   16.9983   -4.3537   -0.9722 H   0  0  0  0  0  0
   15.6679   -3.3284   -3.4861 H   0  0  0  0  0  0
   16.4470   -1.6118   -5.0640 H   0  0  0  0  0  0
   16.3592    0.7737   -4.4711 H   0  0  0  0  0  0
   14.2504    2.1010   -4.1169 H   0  0  0  0  0  0
   14.0325    5.5288   -1.8641 H   0  0  0  0  0  0
   16.2142    2.1471   -0.2704 H   0  0  0  0  0  0
   14.7871   -0.2294   -0.5790 H   0  0  0  0  0  0
   13.4186   -2.4412    3.2602 H   0  0  0  0  0  0
  1  2  1  0  0  0
  1 28  1  0  0  0
  1 29  1  0  0  0
  1 30  1  0  0  0
  2  3  1  0  0  0
  2 26  1  0  0  0
  3  4  1  0  0  0
  3  5  2  0  0  0
  4 31  1  0  0  0
  4 45  1  0  0  0
  5  6  1  0  0  0
  5 32  1  0  0  0
  6  7  1  0  0  0
  6 13  1  0  0  0
  6 26  1  0  0  0
  7  8  2  0  0  0
  7 12  1  0  0  0
  8  9  1  0  0  0
  8 33  1  0  0  0
  9 10  2  0  0  0
  9 34  1  0  0  0
 10 11  1  0  0  0
 10 35  1  0  0  0
 11 12  2  0  0  0
 11 36  1  0  0  0
 12 37  1  0  0  0
 13 14  2  0  0  0
 13 25  1  0  0  0
 14 15  1  0  0  0
 14 38  1  0  0  0
 15 16  2  0  0  0
 15 39  1  0  0  0
 16 17  1  0  0  0
 16 40  1  0  0  0
 17 18  1  0  0  0
 17 25  2  0  0  0
 18 19  2  0  0  0
 18 24  1  0  0  0
 19 20  1  0  0  0
 19 41  1  0  0  0
 20 21  2  0  0  0
 21 22  1  0  0  0
 21 42  1  0  0  0
 22 23  1  0  0  0
 22 24  2  0  0  0
 24 43  1  0  0  0
 25 44  1  0  0  0
 26 27  2  0  0  0
M  CHG  1   5   1
M  END
> <s_m_entry_id>
1409

> <s_m_entry_name>
Bace_CAT-4p.1

> <s_m_Source_Path>
C:\Users\yujiethinkpad\Desktop\05A\BACE

> <s_m_Source_File>
Bace_CAT-4p.sdf

> <i_m_Source_File_Index>
1

> <s_i_glide_gridfile>
glide-grid_Bace

> <r_i_docking_score>
-6.43816330701232

> <r_i_glide_ecoul>
-9.95733261108398

> <r_i_glide_einternal>
2.53645491600037

> <r_i_glide_emodel>
-49.5393342302562

> <r_i_glide_energy>
-38.0704345703125

> <r_i_glide_erotb>
0.407083485992964

> <r_i_glide_esite>
-0.128019597821354

> <r_i_glide_evdw>
-28.1131019592285

> <r_i_glide_gscore>
-6.43816330701232

> <r_i_glide_hbond>
-0.4

> <r_i_glide_ligand_efficiency>
-0.238450492852308

> <r_i_glide_ligand_efficiency_ln>
-1.49869827645495

> <r_i_glide_ligand_efficiency_sa>
-0.715351477771031

> <r_i_glide_lipo>
-2.27825087463681

> <r_i_glide_metal>
0

> <r_i_glide_rewards>
-1.13972133092309

> <i_i_glide_confnum>
19

> <i_i_glide_lignum>
19

> <i_i_glide_posenum>
197

> <i_i_glide_rotatable_bonds>
3

> <r_i_glide_eff_state_penalty>
0

> <s_m_job_name>
glide-dock_SP_bace_other

> <r_user_dG.exp>
-10.083

> <r_m_Molecular_weight>
377.85681

> <r_glide_shape_similarity>
0.941574990749359

> <s_m_subgroup_title>
glide-dock_SP_bace_other_lib1

> <s_m_subgroupid>
glide-dock_SP_bace_other_lib1

> <b_m_subgroup_collapsed>
0

$$$$
