CAT-4k
                    3D
 Schrodinger Suite 2021-2.
 45 48  0  0  1  0            999 V2000
   11.8062   -2.1556    1.3738 C   0  0  0  0  0  0
   13.0527   -2.5108    0.6902 N   0  0  0  0  0  0
   14.2803   -2.5938    1.2169 C   0  0  0  0  0  0
   14.5847   -2.4803    2.4895 N   0  0  0  0  0  0
   15.2261   -2.8187    0.3267 N   0  3  0  0  0  0
   14.6533   -3.0275   -0.9913 C   0  0  2  0  0  0
   14.8916   -4.5047   -1.3725 C   0  0  0  0  0  0
   13.9695   -5.2865   -2.1172 C   0  0  0  0  0  0
   14.2756   -6.6330   -2.4223 C   0  0  0  0  0  0
   15.4329   -7.2455   -1.9317 C   0  0  0  0  0  0
   16.3686   -6.4694   -1.2427 C   0  0  0  0  0  0
   16.1075   -5.1153   -0.9881 C   0  0  0  0  0  0
   15.1852   -1.9653   -1.9602 C   0  0  0  0  0  0
   15.6610   -2.3161   -3.2412 C   0  0  0  0  0  0
   16.0829   -1.3127   -4.1366 C   0  0  0  0  0  0
   16.0126    0.0430   -3.7710 C   0  0  0  0  0  0
   15.5567    0.4202   -2.4906 C   0  0  0  0  0  0
   15.4188    1.8408   -2.1313 C   0  0  0  0  0  0
   16.0164    2.3825   -0.9832 C   0  0  0  0  0  0
   15.7923    3.7288   -0.6594 C   0  0  0  0  0  0
   15.0569    4.5591   -1.4149 N   0  0  0  0  0  0
   14.5007    4.0539   -2.5293 C   0  0  0  0  0  0
   14.6433    2.7108   -2.9220 C   0  0  0  0  0  0
   15.1728   -0.5938   -1.5903 C   0  0  0  0  0  0
   13.1674   -2.7335   -0.7011 C   0  0  0  0  0  0
   12.2342   -2.6525   -1.4986 O   0  0  0  0  0  0
   11.7206   -2.6722    2.3278 H   0  0  0  0  0  0
   11.8372   -1.0847    1.5421 H   0  0  0  0  0  0
   10.9248   -2.3911    0.7767 H   0  0  0  0  0  0
   15.5919   -2.4923    2.8069 H   0  0  0  0  0  0
   16.2097   -2.9812    0.5615 H   0  0  0  0  0  0
   13.0589   -4.8588   -2.5133 H   0  0  0  0  0  0
   13.6738   -7.2375   -3.0629 H   0  0  0  0  0  0
   15.6323   -8.2847   -2.1432 H   0  0  0  0  0  0
   17.3074   -6.8974   -0.9280 H   0  0  0  0  0  0
   16.8741   -4.5541   -0.4708 H   0  0  0  0  0  0
   15.7030   -3.3477   -3.5604 H   0  0  0  0  0  0
   16.4688   -1.5801   -5.1096 H   0  0  0  0  0  0
   16.3146    0.7998   -4.4833 H   0  0  0  0  0  0
   16.5813    1.7600   -0.3088 H   0  0  0  0  0  0
   16.2033    4.1509    0.2463 H   0  0  0  0  0  0
   13.9155    4.7389   -3.1250 H   0  0  0  0  0  0
   14.1603    2.3566   -3.8206 H   0  0  0  0  0  0
   14.8125   -0.3000   -0.6137 H   0  0  0  0  0  0
   13.8290   -2.3560    3.1552 H   0  0  0  0  0  0
  1  2  1  0  0  0
  1 27  1  0  0  0
  1 28  1  0  0  0
  1 29  1  0  0  0
  2  3  1  0  0  0
  2 25  1  0  0  0
  3  4  1  0  0  0
  3  5  2  0  0  0
  4 30  1  0  0  0
  4 45  1  0  0  0
  5  6  1  0  0  0
  5 31  1  0  0  0
  6  7  1  0  0  0
  6 13  1  0  0  0
  6 25  1  0  0  0
  7  8  2  0  0  0
  7 12  1  0  0  0
  8  9  1  0  0  0
  8 32  1  0  0  0
  9 10  2  0  0  0
  9 33  1  0  0  0
 10 11  1  0  0  0
 10 34  1  0  0  0
 11 12  2  0  0  0
 11 35  1  0  0  0
 12 36  1  0  0  0
 13 14  2  0  0  0
 13 24  1  0  0  0
 14 15  1  0  0  0
 14 37  1  0  0  0
 15 16  2  0  0  0
 15 38  1  0  0  0
 16 17  1  0  0  0
 16 39  1  0  0  0
 17 18  1  0  0  0
 17 24  2  0  0  0
 18 19  2  0  0  0
 18 23  1  0  0  0
 19 20  1  0  0  0
 19 40  1  0  0  0
 20 21  2  0  0  0
 20 41  1  0  0  0
 21 22  1  0  0  0
 22 23  2  0  0  0
 22 42  1  0  0  0
 23 43  1  0  0  0
 24 44  1  0  0  0
 25 26  2  0  0  0
M  CHG  1   5   1
M  END
> <s_m_entry_id>
1418

> <s_m_entry_name>
Bace_CAT-4k.1

> <s_m_Source_Path>
C:\Users\yujiethinkpad\Desktop\05A\BACE

> <s_m_Source_File>
Bace_CAT-4k.sdf

> <i_m_Source_File_Index>
1

> <s_i_glide_gridfile>
glide-grid_Bace

> <r_i_docking_score>
-6.21255886007157

> <r_i_glide_ecoul>
-12.4926099777222

> <r_i_glide_einternal>
2.34737849235535

> <r_i_glide_emodel>
-45.7440318864787

> <r_i_glide_energy>
-33.9216833114624

> <r_i_glide_erotb>
0.482711238036396

> <r_i_glide_esite>
-0.189162995210368

> <r_i_glide_evdw>
-21.4290733337402

> <r_i_glide_gscore>
-6.21255886007157

> <r_i_glide_hbond>
-0.278293331755476

> <r_i_glide_ligand_efficiency>
-0.238944571541214

> <r_i_glide_ligand_efficiency_ln>
-1.45899906321951

> <r_i_glide_ligand_efficiency_sa>
-0.707872352989358

> <r_i_glide_lipo>
-2.01571473417803

> <r_i_glide_metal>
0

> <r_i_glide_rewards>
-1.26675387361875

> <i_i_glide_confnum>
20

> <i_i_glide_lignum>
14

> <i_i_glide_posenum>
210

> <i_i_glide_rotatable_bonds>
3

> <r_i_glide_eff_state_penalty>
0

> <s_m_job_name>
glide-dock_SP_bace_other

> <r_user_dG.exp>
-7.853

> <r_m_Molecular_weight>
343.41178

> <r_glide_shape_similarity>
0.963051319122314

> <s_m_subgroup_title>
glide-dock_SP_bace_other_lib1

> <s_m_subgroupid>
glide-dock_SP_bace_other_lib1

> <b_m_subgroup_collapsed>
0

$$$$
